44
44
C  -0.247085  -0.135076   0.158185
C   0.381695   0.088833   0.504439
C  -0.192450   0.229381   0.079573
C   0.247427  -0.010540  -0.187678
C  -0.493874   0.001425   0.166502
C  -0.029671   0.043859   0.255562
C  -0.011142   0.218347  -0.161778
C   0.015450   0.378747   0.142399
C  -0.034549  -0.008569   0.023430
C  -0.070916   0.197958  -0.292593
C  -0.112274   0.035384  -0.216277
C   0.053839   0.238584  -0.117501
C  -0.088186   0.024677   0.087703
C  -0.058757   0.020503  -0.431129
C  -0.177518  -0.224607   0.064410
C   0.160463  -0.272701   0.005433
C  -0.316217  -0.275250   0.156990
C  -0.109728   0.156370   0.077879
C   0.154064   0.147013   0.149277
C  -0.185250  -0.016840  -0.152760
C  -0.008742   0.035313  -0.097359
C  -0.079795   0.248697   0.456378
C  -0.495511  -0.066107  -0.042823
C  -0.045262  -0.300618  -0.015478
C  -0.465317   0.077506  -0.165870
C  -0.136853  -0.256312   0.160388
C   0.143096   0.264877  -0.002434
C   0.336755  -0.065061   0.145178
C  -0.136778   0.089846   0.347332
C  -0.138480  -0.451485   0.039663
C  -0.128143  -0.025783   0.164406
C  -0.314101   0.115522  -0.302511
C  -0.265025  -0.144229  -0.117917
C  -0.176620  -0.015174   0.079716
C  -0.062026   0.183431  -0.336524
C  -0.216602  -0.212516   0.125689
C  -0.218404   0.292545  -0.227721
C   0.142313   0.108001  -0.076756
C  -0.292335   0.057936   0.013732
C   0.168392  -0.249558   0.027392
C   0.007984   0.212225  -0.094311
C  -0.556277  -0.169230   0.135264
C   0.000912   0.209013   0.044267
C  -0.169935  -0.089166   0.011122
44
44
C  -0.327408   0.017886   0.108942
C   0.143932  -0.274289  -0.038754
C   0.503390  -0.024446  -0.067038
C  -0.262814  -0.450968   0.048106
C   0.329627   0.328805   0.241332
C   0.049136   0.086263   0.536142
C   0.067289   0.196728   0.065696
C  -0.030262  -0.153669  -0.032722
C   0.162092   0.013228  -0.151701
C  -0.196769  -0.056522  -0.051342
C  -0.302131  -0.228844  -0.105492
C   0.414864  -0.315765  -0.023033
C  -0.036405  -0.489234   0.264122
C   0.137267  -0.189989  -0.045950
C   0.261065   0.174271  -0.407703
C  -0.234599  -0.354822  -0.014804
C  -0.042853  -0.053738  -0.114183
C   0.383453  -0.043763  -0.193120
C  -0.198263   0.123638  -0.111192
C  -0.269534  -0.167819   0.051470
C  -0.169341  -0.078932  -0.113963
C  -0.322950   0.337776   0.093369
C   0.227715   0.161071   0.164542
C  -0.222987  -0.111912   0.157826
C  -0.222907   0.012090   0.152409
C   0.102359   0.047293   0.249641
C  -0.169387  -0.616069   0.211869
C  -0.416075   0.170649  -0.175324
C   0.052012   0.349011   0.173539
C  -0.112499   0.325778  -0.206188
C  -0.486932  -0.462585  -0.164560
C   0.074429  -0.053844  -0.021629
C   0.091419  -0.024876   0.091920
C   0.129744   0.125887   0.005167
C   0.061501   0.100750  -0.363995
C  -0.114653   0.159543   0.033428
C  -0.259204   0.056612   0.218188
C  -0.176016  -0.061438  -0.019822
C   0.190648  -0.263436  -0.086492
C  -0.111082  -0.048056   0.350782
C  -0.155078   0.469217   0.129544
C   0.099486   0.017379  -0.064956
C  -0.336021  -0.251381  -0.046028
C  -0.098754   0.030368  -0.232814
44
44
C   0.155788   0.087406  -0.460213
C  -0.340936  -0.017793  -0.109402
C   0.623356   0.196024   0.211130
C   0.260931   0.337254   0.154381
C  -0.128149  -0.283784  -0.235965
C   0.116183  -0.284233  -0.230437
C  -0.242572   0.105976   0.023372
C  -0.052100   0.102533  -0.178799
C   0.157632   0.246085   0.085014
C   0.136278   0.007570  -0.054605
C   0.079550   0.361343   0.413277
C   0.100927   0.122852   0.044343
C   0.010645  -0.200214  -0.385323
C  -0.353188  -0.251602  -0.128603
C   0.243496  -0.153074   0.212728
C  -0.141133   0.079261  -0.037789
C  -0.126756  -0.056257   0.166357
C   0.105446   0.128375  -0.086834
C   0.176359  -0.047465   0.392277
C   0.224819   0.160536   0.234080
C   0.756260  -0.127789   0.084939
C   0.010298   0.355413  -0.094015
C  -0.006352   0.062027  -0.236161
C   0.441390   0.162204  -0.005894
C   0.169506   0.469973  -0.500168
C  -0.053851   0.048690   0.101268
C  -0.254531  -0.027336   0.192849
C  -0.033081  -0.072508   0.367349
C  -0.179593  -0.308589   0.340632
C  -0.451264   0.074178  -0.332418
C   0.592429  -0.076053   0.137145
C   0.134101   0.113451  -0.197419
C  -0.190715  -0.239234   0.014167
C   0.333656  -0.013013   0.029059
C   0.057743   0.456453  -0.090888
C  -0.060039   0.148453   0.118835
C  -0.318766  -0.130335  -0.032298
C   0.191764   0.094590  -0.025891
C  -0.203706   0.022924   0.103373
C   0.168941   0.062687  -0.395523
C   0.375362   0.441316  -0.132949
C  -0.164640  -0.006242   0.263727
C   0.113422   0.115751   0.178245
C  -0.011769   0.065975   0.135031
44
44
C   0.229708   0.056673   0.157093
C  -0.055699  -0.118076  -0.407767
C  -0.129738   0.210681   0.111553
C   0.136494  -0.221674   0.085246
C   0.019404  -0.036530  -0.390711
C   0.166506   0.095092   0.201057
C  -0.370568   0.143764  -0.049676
C   0.049647  -0.301097  -0.231012
C   0.511665  -0.160242   0.251709
C  -0.173877   0.240565  -0.064494
C  -0.121349   0.069757  -0.174300
C  -0.353513   0.244535   0.150670
C   0.220540  -0.241387  -0.270432
C   0.063544  -0.069996   0.287983
C  -0.341591   0.130818  -0.063915
C  -0.178510  -0.009861   0.170180
C   0.311559  -0.341173   0.311462
C   0.294592  -0.311298  -0.023098
C  -0.263605   0.074417   0.080312
C  -0.173094   0.235833  -0.035867
C  -0.127053   0.057835   0.289397
C  -0.022128   0.349062   0.331508
C  -0.000696   0.137761   0.060378
C  -0.154435   0.365100   0.261522
C   0.236152  -0.195418  -0.335446
C   0.256488  -0.058716  -0.037634
C   0.241534  -0.159583   0.008504
C  -0.030685   0.081848   0.220037
C   0.274230   0.233301   0.288864
C   0.224711   0.048766  -0.138607
C   0.097797   0.054350   0.110948
C   0.025189   0.166244  -0.098624
C   0.342969  -0.100722  -0.227519
C   0.314726   0.121253  -0.125906
C   0.162921  -0.240632   0.089626
C  -0.305672   0.048860   0.012558
C   0.309204   0.130191  -0.031145
C   0.173003  -0.247341  -0.100889
C  -0.074843  -0.102819   0.055032
C   0.168377  -0.264098   0.062471
C   0.633579   0.031876  -0.176956
C   0.419242  -0.052867  -0.029046
C   0.037840   0.015833  -0.020708
C  -0.007201  -0.173357   0.367538
44
44
C  -0.088036   0.096216   0.086431
C   0.401196  -0.002316   0.062270
C  -0.131825  -0.223387   0.082600
C   0.264241  -0.347082  -0.295693
C  -0.059731   0.094648  -0.042305
C   0.166487  -0.091663  -0.195306
C   0.298757  -0.128762  -0.316690
C   0.044191   0.001885  -0.561917
C   0.215737  -0.387851  -0.058626
C   0.286624  -0.050036  -0.016563
C   0.124627   0.039299   0.523969
C  -0.067522   0.307320   0.256737
C  -0.350881  -0.224376  -0.425086
C  -0.289727   0.109645  -0.447889
C   0.308658   0.459060   0.491176
C   0.133561   0.025312  -0.232527
C   0.169174   0.022681   0.232929
C  -0.065846  -0.092940   0.212219
C   0.082932  -0.199855  -0.170344
C   0.044806   0.499238  -0.189524
C   0.140898  -0.309198   0.135126
C   0.093795  -0.034132   0.058610
C  -0.226807  -0.123270  -0.079113
C  -0.321805   0.202209   0.127884
C  -0.071986  -0.224878   0.370874
C  -0.218075   0.040382   0.408765
C   0.096438  -0.026498   0.074219
C  -0.030052  -0.217839  -0.276872
C  -0.285160   0.280106  -0.102783
C  -0.045482  -0.269987   0.248993
C   0.030584  -0.175961  -0.312740
C  -0.455919   0.158619   0.095809
C   0.100490   0.026099  -0.026860
C   0.205753   0.225423  -0.142674
C  -0.016940   0.029860   0.202923
C  -0.310544   0.192193   0.009371
C   0.225765  -0.298344   0.126613
C  -0.009872   0.069054  -0.106117
C   0.211623  -0.106281  -0.369996
C  -0.414240   0.162264   0.088128
C   0.048796  -0.236614  -0.322810
C  -0.322008  -0.040980   0.135805
C   0.077075  -0.035231   0.229807
C   0.162584   0.093717   0.070197
44
44
C   0.095718  -0.169524  -0.023192
C   0.075312  -0.410017   0.183207
C   0.011125   0.090332   0.033151
C   0.020409   0.230241  -0.265400
C  -0.010195  -0.429688   0.193631
C  -0.285980  -0.254553   0.224635
C   0.036704   0.456634  -0.166723
C   0.260703  -0.262116  -0.244557
C   0.081046  -0.106820   0.567908
C   0.000804   0.081785  -0.354289
C   0.295230  -0.055476  -0.039607
C  -0.245640   0.249769   0.400030
C   0.463148   0.272697  -0.088977
C  -0.026036  -0.381001  -0.088251
C  -0.307234  -0.003227   0.087067
C   0.227554   0.079623   0.196866
C   0.018994  -0.073870  -0.134890
C  -0.086429   0.318497   0.104978
C   0.114078  -0.374313  -0.499889
C  -0.273275  -0.105321   0.000257
C  -0.045538  -0.085385  -0.124794
C   0.153293   0.138068   0.078746
C  -0.208403   0.052716   0.030819
C   0.039353  -0.209560  -0.086433
C  -0.239210  -0.039057  -0.267499
C  -0.677600   0.114960   0.102437
C  -0.042433   0.083586   0.399708
C   0.359417  -0.232467  -0.081572
C   0.081690  -0.181853  -0.087128
C   0.100809  -0.047674   0.060376
C   0.234291  -0.228680   0.121621
C   0.081932   0.151346  -0.353351
C  -0.029873  -0.411059  -0.237183
C   0.287535   0.285458   0.615754
C  -0.057320   0.247480  -0.048018
C   0.013936   0.392561  -0.089964
C  -0.185137  -0.023685   0.056135
C  -0.237434   0.099027   0.146085
C   0.251932   0.248988  -0.063033
C  -0.183265   0.186746   0.004803
C   0.265373   0.327981   0.329408
C  -0.284068   0.174705  -0.153764
C   0.229526  -0.038830  -0.006417
C  -0.420298   0.105662  -0.169261
44
44
C  -0.062175  -0.130569  -0.132491
C  -0.343333   0.115983   0.145383
C   0.205604  -0.403410  -0.198680
C  -0.391452  -0.006822  -0.164234
C   0.100160  -0.069727   0.087286
C   0.229572   0.111142   0.144065
C   0.254715  -0.270420   0.328442
C   0.433121  -0.280827  -0.149832
C  -0.078632   0.142460   0.152263
C  -0.084880  -0.009185   0.114328
C  -0.049388   0.161000   0.159984
C  -0.146484  -0.197827   0.172653
C  -0.076531  -0.182462   0.154488
C   0.203369   0.022468   0.050348
C  -0.263933  -0.035189   0.051871
C  -0.417766   0.208964   0.088689
C  -0.193996   0.375884  -0.204675
C   0.194005  -0.326796  -0.286540
C   0.257552  -0.170246  -0.043281
C   0.198102  -0.099763  -0.105564
C   0.324980  -0.243220  -0.310235
C  -0.137506   0.064847   0.128498
C  -0.022195  -0.267594   0.225675
C  -0.055840  -0.052597  -0.194061
C   0.120465   0.346864   0.185397
C   0.163629   0.321801   0.087566
C   0.191889  -0.178515  -0.320705
C  -0.176047   0.020464   0.008509
C  -0.014957  -0.102567   0.322840
C   0.162475  -0.082431   0.153571
C   0.070684  -0.111982  -0.330461
C   0.056092   0.057813  -0.017232
C  -0.045079   0.007506  -0.247855
C  -0.271006  -0.240308   0.200668
C   0.160817   0.102313  -0.111173
C   0.370436  -0.182772  -0.378682
C   0.050871  -0.015909  -0.275948
C  -0.001110  -0.153637  -0.164526
C   0.178362  -0.155269   0.157670
C   0.145197   0.231976   0.264345
C  -0.134006   0.270893  -0.224361
C   0.363964  -0.147924  -0.184338
C   0.246698   0.140236   0.190193
C  -0.258588  -0.213049  -0.296576
44
44
C  -0.369352  -0.259901  -0.277563
C  -0.176714   0.260223  -0.096157
C   0.018629   0.004650  -0.210939
C  -0.023650   0.445581   0.150513
C  -0.014599  -0.172860  -0.213647
C   0.010170   0.210824  -0.110836
C  -0.045016   0.074459  -0.234879
C  -0.097253   0.016488   0.220644
C  -0.129718   0.254010   0.176744
C  -0.029986   0.220335  -0.463310
C   0.174262  -0.227300  -0.141110
C   0.147703  -0.000731  -0.236048
C   0.023158  -0.229155  -0.011163
C  -0.035517  -0.140633  -0.144660
C   0.312977  -0.114138  -0.033400
C   0.107823  -0.248115  -0.194689
C   0.004579  -0.021788   0.274519
C   0.188453   0.254224  -0.158863
C   0.269230   0.007984   0.068886
C   0.032592   0.217990  -0.284931
C   0.187568  -0.035057  -0.166323
C  -0.000402   0.062983  -0.049360
C  -0.514042  -0.038748  -0.222640
C  -0.149865  -0.194003  -0.107587
C   0.158080   0.060006   0.327243
C   0.198425  -0.148148   0.256982
C   0.216187  -0.383072  -0.056116
C   0.063904  -0.137586   0.143108
C   0.210468  -0.246565   0.085414
C   0.119620   0.062977   0.007887
C  -0.336842  -0.057092   0.173236
C   0.196153   0.165098   0.258157
C   0.078929  -0.237932   0.101808
C   0.233056   0.129393   0.440795
C  -0.363005  -0.085084  -0.174411
C   0.240271  -0.046254  -0.332619
C  -0.002541   0.243661   0.099527
C   0.110783  -0.056185   0.077579
C  -0.605469   0.036999  -0.237434
C  -0.429436  -0.315419  -0.016629
C  -0.039712  -0.299446   0.042462
C   0.111135  -0.193570   0.461602
C  -0.054924   0.119326  -0.112845
C   0.154039  -0.088918  -0.086852
44
44
C   0.281411  -0.315071   0.273411
C  -0.070983  -0.067218   0.161609
C   0.005092   0.080439  -0.472024
C   0.110616  -0.041259   0.604403
C   0.222840   0.351583  -0.134267
C   0.177200   0.024390   0.008285
C  -0.327725   0.028166  -0.000393
C   0.287613   0.013896  -0.122442
C  -0.106275   0.152499  -0.029888
C   0.171174  -0.165618   0.331583
C   0.003536  -0.398960   0.159535
C   0.270841  -0.170710  -0.222781
C  -0.195071  -0.196093  -0.426352
C   0.104836  -0.026242   0.293469
C   0.178516   0.018510   0.041974
C   0.005136  -0.342178  -0.128495
C  -0.120755  -0.060016  -0.091401
C  -0.332835   0.414559   0.472787
C  -0.215857  -0.240711  -0.177751
C   0.059324  -0.200644  -0.197768
C   0.313800   0.039561  -0.048977
C  -0.285184  -0.156511  -0.139227
C  -0.187947  -0.533158  -0.321104
C  -0.258592   0.386314  -0.249376
C   0.047627  -0.140679   0.038762
C   0.069346   0.250852  -0.290207
C   0.129457  -0.114216   0.427635
C   0.230358   0.270956   0.145604
C   0.072040   0.259811  -0.318793
C   0.129035   0.078990   0.060772
C   0.095564   0.510009   0.080056
C   0.279136  -0.001147  -0.045615
C   0.491072   0.201901   0.062052
C   0.077344  -0.330813  -0.101298
C   0.050127  -0.356633   0.197318
C  -0.241000   0.299620   0.053051
C   0.163977  -0.059491   0.589801
C  -0.285199   0.196383   0.056637
C  -0.022434  -0.070274  -0.210588
C  -0.169524  -0.041275   0.234304
C   0.254234   0.013164   0.110076
C  -0.089541  -0.005350   0.112335
C  -0.367909  -0.051957  -0.266992
C   0.254614  -0.106245  -0.113405
44
44
C  -0.028495   0.021694   0.210025
C  -0.293729  -0.092688   0.099652
C  -0.246268   0.097270   0.206114
C  -0.328929  -0.291428  -0.028872
C  -0.421224   0.018979   0.088112
C  -0.123583   0.193335   0.136727
C   0.119119   0.054763   0.087103
C   0.247288   0.114626  -0.025943
C  -0.078715  -0.168841   0.222252
C   0.070815  -0.339996  -0.187939
C   0.080423   0.208163   0.294723
C   0.057224  -0.079415  -0.252296
C  -0.086913  -0.187230   0.184590
C  -0.565711  -0.232202  -0.176512
C  -0.092738  -0.345248   0.032759
C  -0.007469   0.072406   0.013994
C   0.242326   0.004162   0.348024
C  -0.116547   0.535901   0.137576
C   0.048538  -0.029098   0.073318
C  -0.089196  -0.318916   0.098842
C   0.084618   0.031958  -0.321607
C  -0.163472   0.058412  -0.268846
C  -0.250057   0.372409   0.270778
C  -0.118605  -0.224656   0.048658
C   0.423753   0.349572  -0.121217
C   0.042863   0.509880  -0.179636
C  -0.124413   0.042330   0.198400
C   0.241008   0.464421   0.140832
C  -0.018048   0.050370  -0.208037
C  -0.325311  -0.093403   0.278253
C   0.008929  -0.017378  -0.186664
C   0.232972  -0.219657  -0.433308
C   0.247404  -0.018057  -0.064368
C   0.245297   0.055700   0.015881
C   0.193052  -0.281761  -0.258110
C   0.063161   0.076766  -0.059353
C  -0.089212   0.059528  -0.294143
C  -0.007408  -0.029553  -0.169597
C   0.304673   0.024210   0.214725
C  -0.293956  -0.111128   0.421631
C  -0.204722   0.090990   0.150141
C  -0.113409  -0.231900  -0.315949
C   0.040282  -0.249488  -0.130659
C  -0.158098  -0.148579   0.446109
