44
44
C   0.784490 -10.660390 -21.804171
C  -4.659201 -13.839346  41.642059
C  -5.269992   9.142276  -4.614898
C  12.774097   5.406825  -7.125518
C -17.348431  47.540726 -15.620712
C   1.075111 -22.593517   4.715823
C  17.451128 -16.281847  16.772934
C  -5.244251   4.571484 -11.690254
C  54.186733 -35.292007   9.494812
C -29.325777   0.270363  10.225217
C  11.682776   1.701198 -21.449757
C -14.450202   3.865297  -2.926065
C  -8.154057  -7.935288   5.167614
C  -4.930379  -5.190827  -9.582032
C  -6.099181  56.848534  -2.058858
C   4.836443 -11.323166  13.055767
C -14.582246 -20.760372   6.605085
C   2.796755   6.042895  -7.074099
C  14.629836  25.506393 -12.862818
C -17.822264 -14.064646  12.225039
C  -5.126449  -3.972765  -4.007628
C   7.353783  -5.474324   3.471718
C -13.429614   3.601285  -5.275887
C  26.731274 -18.214224 -34.595448
C  -7.273943  16.319365   5.592086
C  -8.978658   0.711548  19.858494
C  -9.314345  -3.584175  39.813210
C  19.945589  -3.791501 -15.149926
C -18.515886  11.788908 -40.280277
C   4.577558   3.284020  29.373009
C  41.630539 -12.778091  11.861551
C -19.251717  13.444666   0.475546
C  36.513329 -25.410898  -0.706961
C  -5.987199 -16.431759   1.209416
C -24.958883  10.819920 -24.215998
C -14.756550  21.039553  25.076092
C  22.088989 -32.027267  -7.743509
C -10.225036   5.826820 -27.242107
C -32.170113  55.954529  21.981094
C   9.001549 -10.099295  -3.464056
C  -3.577004 -20.391907  -5.846557
C  10.443680  18.298771 -14.194546
C   3.467706   0.448532   7.481518
C  -0.307456 -11.213196  14.637716
44
44
C  -2.696042 -24.201666  -9.158856
C  24.692278  61.124088   9.358827
C -28.758524  -7.130773 -13.466232
C  -4.144535  -9.638911   5.758290
C   9.499918  -2.281254 -20.240540
C  16.020847 -21.503582  15.391063
C -38.422604 -31.770533  34.626083
C  30.515209   8.333551 -23.747967
C -29.939901  29.454426  36.609512
C  33.862991   8.057098 -19.766388
C  19.941591   8.391538 -28.034664
C -10.528646 -12.891985  27.494581
C  -0.877993 -10.226398  -2.851202
C  -5.162106  -3.456109   0.842642
C  10.995893   3.337854   8.171828
C -10.508930   4.254107   1.812852
C  12.412567 -25.968561  15.317968
C -40.318783  15.420106 -32.436630
C -34.764286 -53.916286  11.066439
C  -6.244280   7.428473 -26.886093
C  34.510151  13.050535  -2.128249
C  10.770593  43.064163  14.917603
C  14.305358   5.584939   7.123039
C -32.048309  -5.928275 -21.462349
C   8.890315  -0.570744  -9.525002
C  -3.735467  -6.091623   6.177763
C  20.146879  24.886301   9.170154
C -27.944239  -5.626267   5.231640
C  59.222012 -22.312950 -41.744606
C -30.712679  14.200634  32.147503
C   4.221298 -31.967669  19.973455
C   9.814713  11.541800   5.153596
C   1.482368  -3.578427   5.155244
C  -2.399844  -4.045207   3.638078
C   3.956030 -17.038937   1.315191
C -11.011802  12.041221 -13.810387
C   4.749515  22.246405 -16.315851
C   4.732075   7.186827 -14.507440
C -18.878899   9.203486  23.770184
C  16.989376 -13.954440  -1.742772
C -34.759396 -23.327398 -15.846402
C  20.091909  10.381991   3.402304
C   4.362811   9.693461   3.767243
C  -1.825881   8.700531   7.618217
44
44
C -20.235437  31.092495   3.251155
C   8.301666 -49.591248  40.210445
C -19.355453 -17.206043  -3.713814
C  13.080492  18.866325 -30.926958
C  22.270790  -8.147492  -3.811668
C -14.328315  21.371237 -11.489014
C  50.043369   5.652768  31.759298
C  -7.721255  -3.470036  -2.831882
C -48.760227  46.724438  17.547951
C  11.293384 -13.927192  -2.247900
C  -6.343276 -56.212322 -84.059517
C  14.408763  20.474415   7.963443
C -17.624548  15.481341  15.513696
C   4.357485  -3.164495  27.084053
C  31.197786 -24.564884 -23.703547
C  -9.819744  12.724525   6.319628
C   2.490549  11.588520  43.473446
C  -6.230616  -3.076226 -16.571304
C -17.632492   3.297722 -40.243839
C   9.476546  -3.822238  12.076745
C  -6.362388   8.992655  -5.062350
C   5.710351  -9.171925  16.608534
C  -4.910060   5.361152   0.180166
C -25.643997 -51.771343  27.213018
C  -0.276224  27.195400  16.653635
C   9.506053   5.712909   1.026690
C   4.129783  38.092587 -49.933853
C   7.356874  -3.733017 -24.468233
C -20.236757  -4.518145  69.742790
C  33.008579 -21.653645 -32.210938
C -24.833195 -17.840467 -18.661381
C  10.525356   0.072931  10.765509
C  31.602566  29.085781  14.235460
C   0.200920  -8.383423 -16.386076
C  -7.783331 -17.895622   2.331743
C -25.917759  25.869984   7.606486
C  42.366444 -23.490961  -7.294240
C -16.400002   2.780065   8.984793
C  -9.925452  24.465502 -13.200812
C  17.096975 -21.116478  -4.697599
C -31.566210  -5.689193   4.803572
C  10.047121   5.356880  -9.225674
C   6.434195  16.548294  19.780041
C  -1.263399  -8.366874  -4.850443
44
44
C  -3.519380 -23.460686 -23.593952
C   9.530499  30.343115  45.258030
C  -9.774520   4.210176 -12.907069
C  -0.135617  -9.565536  -2.968170
C -22.833475  36.449661 -10.028748
C  15.669516 -27.254131   0.525685
C  -1.868203 -21.653936 -11.284000
C   3.800052  -5.873134   3.221138
C  23.085773  69.446144  -6.101485
C  -8.748961  -7.349340   0.205950
C  42.046444 -21.995010  64.747086
C -16.275822  16.924627 -11.432270
C  12.574851 -18.078165 -15.818942
C -35.973469  -0.028407 -11.310167
C -31.498768 -11.567572  -4.473557
C  29.569212   0.896298   7.656994
C -13.088675  -7.504437 -23.468008
C  23.545570  -8.933010   7.869998
C -26.578403  16.569424  18.761414
C  -5.633590 -15.293478   0.114838
C  23.539743  15.123495  -1.578396
C  -5.152537 -10.717854 -15.354575
C  -0.608520   4.741315   8.213023
C   3.336759 -17.737520  27.716398
C -13.154085  -2.969097   1.698317
C  22.285501  -2.235817  -8.885816
C -21.539558  69.202087  -8.327672
C  -0.785798 -16.718903  -7.284255
C  -1.464549 -35.886055 -18.148129
C   9.732508   2.419099  19.387554
C  22.371912 -52.249916 -37.723690
C -18.946701  13.838299  21.627956
C -38.622868 -23.031809  27.935682
C  14.716641  -3.217397  -5.622461
C   5.457691  17.078547 -16.640387
C  16.862228  19.540466   6.725616
C   8.936725  15.934633 -22.445879
C  -4.709872  10.638397  10.483807
C -12.636710   5.508456   6.747238
C   9.818575  -7.282218  -9.535022
C -17.020287  -6.603981  -9.112644
C  14.112314   1.688038  13.417934
C   0.135636  -0.554042  -7.488717
C  -0.336471   8.148987   8.778090
44
44
C  13.259586  -1.667537 -15.607353
C   3.606454   4.379760 -20.770849
C  15.509831  -4.372961   2.736439
C -32.685078   8.787359  26.755899
C -20.054604  14.954266  -8.932928
C   0.180256  -5.656004  -5.041881
C  -4.175787 -48.158699  41.246742
C  13.734722  24.247137  -6.566309
C  29.661087  27.015951  25.649818
C   7.003093   7.133626 -16.207190
C -10.512109   7.337696 -31.571423
C  -2.262754  -1.691513  -3.949694
C  17.704809  13.851202  17.748177
C -22.315598  -1.317672  13.858943
C  14.132545 -112.611450 -49.143204
C -28.492407  43.315872   5.841709
C   1.401346  -2.503229  -4.823733
C -10.205403  18.410854  10.590757
C  -6.720075  -4.621802   7.942198
C   1.384363  -1.635571   3.318764
C  24.012682  12.631948  -0.719537
C  -9.350037   2.464707   8.828100
C  -2.974659  -2.412843  -1.060287
C -12.475371  10.870912  10.955536
C  -1.480887 -10.878835  -7.802279
C   5.627184  13.826863  -6.024695
C   2.924749 -13.495451  -5.877660
C -40.437500  18.352303  13.364121
C  37.840935 -16.685881  -6.110021
C  11.007456 -10.308591  11.513731
C -11.615121  17.513161  22.177710
C  10.445143  -5.946166 -15.793509
C  -5.002103  12.390388  16.415903
C  -0.704156   0.587532   0.404704
C  -3.942991  -9.633536 -20.280294
C   9.713781  -0.186691  -4.295843
C -14.562830  38.302898 -37.168861
C  -1.449213 -22.197664  25.183010
C   7.592209 -40.812828   6.226358
C   4.876699  14.361011 -11.111519
C  43.129578   1.645040  17.513599
C  13.300165  -2.617122   0.444319
C -24.232382   8.003371  14.426008
C -21.925209  -1.484193 -24.007538
44
44
C   2.711031  30.327488   3.668841
C -14.217257 -32.899246  33.213722
C   3.021742 -10.241743 -10.335093
C   3.690622  -2.048743  -9.833758
C  14.072202   6.352735   1.813990
C   3.982305   9.161280  -6.742087
C -21.123133   4.015840 -24.643089
C  -1.285868 -18.959373  18.106024
C  29.770636  19.665737  15.573285
C   1.448195  -7.166910   1.442935
C -43.042820   5.305686 -69.677330
C  12.052050 -11.879340  29.361515
C  -6.953109 -11.492418   5.930892
C  26.318911  -6.093260   8.894566
C  28.079487  34.045238  51.393227
C -29.372662   9.381223 -17.340359
C -28.726921  17.223539   2.599040
C  13.187986 -22.799698 -13.373579
C  -4.827862  13.370136   0.794714
C   3.638395 -21.566465  19.598722
C  21.388142  14.181158 -20.034981
C -21.459230 -19.199257 -18.246599
C   4.536671  -1.183606  -2.535529
C  -5.594051 -16.229795  31.778580
C  -7.040491  -1.240285  -4.535771
C  -2.482135  12.618945  -8.802366
C  36.973854   4.987202 -28.715729
C   0.352902 -13.254560   3.765401
C -18.112797  -1.687398  12.183654
C  -1.577167  -0.151581 -16.455860
C  -7.134316  21.783417  40.037746
C  13.096609  -3.296001  -9.935463
C   7.830909   6.880915 -13.158945
C -33.825619   7.213447  25.162481
C   8.445573   1.546934  -4.220809
C  10.158569 -16.416897  -2.887327
C  -6.057893  45.245754 -10.054868
C   7.034229 -36.231026  -6.894605
C  10.293539 -32.872208  -9.643597
C  -2.969099  10.313940   1.539972
C -42.197365 -21.522287   4.595627
C  16.611767   6.535889   8.715295
C  -2.332097  15.058729   8.114184
C  23.617517  12.776261 -19.552732
44
44
C   6.847711 -11.305751  -2.826185
C -32.932964   7.975610 -28.335432
C   6.090686   8.764697  18.749086
C  12.069983  -7.029782  -1.062113
C   8.827445  39.992607  -0.047667
C  -2.727159 -11.678390   3.527563
C  32.164551 -10.368792  23.992653
C -32.947449 -15.972140  -8.938286
C  54.847973  -2.358032  -1.115771
C -50.811485 -17.034136  20.577406
C -11.071225  32.320179 -28.516653
C -23.602831  -7.583798  24.965210
C   4.200269 -17.446264   4.821232
C  28.076851   0.621651 -10.568969
C  -1.072518  44.919746 -60.640556
C -20.202904  -0.785860  -3.847908
C  12.206542 -43.983967  33.439018
C   3.756003   0.045632   6.527897
C  -5.840745  13.130362   2.423174
C  -8.231893  -8.538312  -3.125496
C   9.539262   3.695969  -7.556817
C   6.858268   3.403745  17.837162
C -12.236597   4.596038  -8.172617
C  58.965202  13.209336  16.166166
C -34.468971 -21.304308  17.202377
C -25.474045   4.226775 -25.663174
C   1.894277   7.774302 -21.861776
C -15.287894  -1.561725   1.230470
C  32.201355  -6.448609  -5.551687
C -15.602797   2.430610  17.808319
C -10.659835 -14.999224  -7.879609
C   3.905153  15.266328  -2.240724
C  -6.790506  -6.537778  30.305302
C  14.917795  -9.739681  -8.320339
C   1.840788  12.663401 -18.943962
C  -3.811985   6.050267  11.935011
C -41.987190   4.810995  65.392838
C  20.853931 -32.011559  -9.641661
C  30.891481  44.309391 -70.660522
C  15.321239 -21.336521   2.577047
C -28.277819 -62.912678   8.963952
C  -2.352434  42.387352  18.881813
C  10.136231   4.315131  -9.134954
C  10.644593  13.392404  -3.130716
44
44
C -30.614136   4.986730 -13.723717
C  37.233856 -31.295483  42.968018
C  -1.608881  -7.968045  -8.826420
C -13.749301   9.471206   5.960551
C  18.612247  26.613544 -60.356556
C -26.675121  -8.061986  19.338678
C  16.432011  26.205605  31.683147
C   7.074608  15.744241 -15.496265
C  48.411106 -73.617493   8.611094
C  -9.494959  -4.171773 -25.604107
C -25.055344  61.438011 -18.617989
C   7.090738 -18.811619  11.597978
C  19.792812 -12.722517  -5.280376
C -20.646088 -11.876619   2.705669
C -36.338081  22.414570 -18.527113
C  -1.060696  -2.935306  12.612629
C  37.134758 -13.958093  28.916409
C -17.387943  16.192200  -6.549438
C -14.812283 -31.436054  -3.651375
C  -0.474895  19.111925 -15.758289
C   9.596557  10.592924  10.399306
C  -4.005822  -1.845824  10.032853
C  23.582479  25.414402  17.642797
C  20.610615 -26.444599  39.756927
C -33.060982  15.472279 -12.164146
C  13.534976 -12.675303 -21.694365
C -16.833145 -39.881111  15.767382
C  10.652407  -0.226506  -8.025945
C  -9.121321  48.912548 -19.461563
C  10.059562 -20.632299 -16.362803
C   2.573952  68.302467   9.410938
C -34.620461  -6.638134  30.474171
C -61.907207   9.504056   3.483997
C  38.419388   0.325542 -13.272060
C  10.791739   3.392209  -0.543846
C  10.317910 -16.728073  -1.408161
C  61.365097 -35.944870 -44.470695
C -38.275959   3.028529  38.535137
C -35.135895   1.463518   3.259736
C  12.554720  -5.561620 -10.995596
C  81.337349  16.550417  -0.141963
C -28.951765   5.960312   7.972171
C -27.419531 -26.353786 -15.675403
C -10.356748  -1.516626   7.151075
44
44
C   1.974100  -9.559250 -24.292181
C -19.334198 -34.691643  19.840282
C  -2.371021   8.358078   4.942739
C   9.236499   7.792450   4.098010
C -65.776825  47.151924 -19.333820
C  19.630211  19.247129  -2.335632
C  44.018543 -43.533112  46.716793
C   5.157751  22.208729  -7.287026
C   0.905340   9.875546  11.751087
C   8.956327  12.486135  -8.265222
C -53.330441  75.878571 -36.462738
C  19.815533 -35.710167  22.398132
C  13.501674 -19.278053  -7.466219
C  -2.381712 -10.729183  16.352890
C  11.636766  -2.867523 -22.824596
C   9.542818 -43.098976  -4.086072
C  -8.028344 -35.246880  -8.142028
C   4.502879  -7.006413  -8.231764
C  31.702833  65.182495  17.089277
C   0.079062  -1.932608   9.898344
C -14.046917  -2.943919 -13.465174
C -18.434250 -23.012882  11.722490
C   3.919814 -32.170830 -13.322846
C  -6.740273  37.172035  -1.166116
C  -5.329163  -4.153749  -4.506803
C  17.598057  -4.051689   5.663899
C  14.487103 -11.296118  -0.671765
C -16.986853  12.533556  17.353903
C -22.652386   8.358747  -8.183557
C   3.285903  -5.292054 -19.915325
C  26.621019   4.593590  17.179668
C  -9.345727 -16.587608   8.473021
C   0.390813  13.036360   0.937401
C -19.364197   2.890470  15.152766
C  -3.844058   8.591244 -10.078433
C  26.847443 -14.443955  -2.255407
C -44.475864  48.021606 -22.650162
C  26.441795 -11.815342 -27.550322
C  17.556664 -31.742523  37.639828
C  -1.654534   5.239960  -6.177649
C -19.789326 -19.142349  30.778091
C  -4.100394  -5.405021 -40.808079
C   1.417310  -2.227011   5.197892
C  19.387699  18.554583  16.226704
44
44
C  -0.670868  18.657635  15.798290
C   4.565932 -12.928759 -40.638401
C   4.733967  -5.953801  14.157031
C -10.417789  -8.074645  16.854952
C  83.527374 -10.114307  11.128183
C -53.270451  -9.391235  -0.357779
C -51.692543  41.253296 -23.480394
C  12.249416  -7.721706   1.332955
C  28.098839 -25.246166 -18.534399
C -17.443813   4.647995  11.907839
C  23.208025 -21.930927   5.040415
C -13.429863   8.434873  12.697154
C   5.627697  -7.127371  -0.389681
C -11.597640  13.345755  -6.147233
C  26.021900  26.362915  55.917225
C  -4.024841  -1.294962   1.876783
C -59.337090  32.769733 -49.539631
C  39.487801 -29.782963   7.347170
C  -9.577145 -36.456333  -0.446463
C   1.362388 -13.311631   6.009024
C  16.372673   5.014508   7.721675
C -12.703044  31.577707 -25.947454
C   2.234622  -0.886845  11.618176
C -13.633145  33.006454 -13.531409
C  -9.272594 -27.899731  18.171995
C  31.291594   3.160650  -2.600931
C   5.948606 -35.114613 -84.952568
C  -2.864692  20.148220  49.995232
C -21.501720  35.258766  18.143700
C   8.564294  -6.046270 -33.823170
C  -9.429377 -41.734802  63.729099
C   2.297326   3.287243  -5.986238
C  18.363222  11.396880  -7.538652
C  12.166192  15.297930 -13.262777
C  -9.841473  -6.423717  -7.844273
C -14.423316  13.745183   0.680267
C  -0.820096 -20.712425  41.741096
C  -4.490468   1.624139  -5.000920
C  -7.436317  49.993538 -40.861191
C  -0.728904   1.813208   3.316922
C   2.013835 -18.235029  13.373818
C  11.547292 -11.297477  -5.671924
C  -1.222814  -2.053688   5.072912
C  -1.144924 -11.981046  -6.102403
