44
44
C  34.611355  29.306915  32.962006   0.00000000e+00   0.00000000e+00   0.00000000e+00
C  34.388237  30.205368  33.475365   0.00000000e+00   0.00000000e+00   0.00000000e+00
C  35.234592  30.350025  34.157017   0.00000000e+00   0.00000000e+00   0.00000000e+00
C  33.472561  30.006927  34.072697   0.00000000e+00   0.00000000e+00   0.00000000e+00
C  34.171150  31.377777  32.583542   0.00000000e+00   0.00000000e+00   0.00000000e+00
C  35.046505  32.221569  32.354156   0.00000000e+00   0.00000000e+00   0.00000000e+00
C  32.898045  31.618601  32.214218   0.00000000e+00   0.00000000e+00   0.00000000e+00
C  32.221771  30.980272  32.630089   0.00000000e+00   0.00000000e+00   0.00000000e+00
C  32.437984  32.745010  31.379221   0.00000000e+00   0.00000000e+00   0.00000000e+00
C  33.370377  33.283043  31.036448   0.00000000e+00   0.00000000e+00   0.00000000e+00
C  31.828051  32.115360  30.178419   0.00000000e+00   0.00000000e+00   0.00000000e+00
C  31.668272  32.901737  29.455408   0.00000000e+00   0.00000000e+00   0.00000000e+00
C  32.584614  31.489059  29.692598   0.00000000e+00   0.00000000e+00   0.00000000e+00
C  30.931124  31.593918  30.497087   0.00000000e+00   0.00000000e+00   0.00000000e+00
C  31.511280  33.613514  32.168495   0.00000000e+00   0.00000000e+00   0.00000000e+00
C  30.463320  34.042786  31.657347   0.00000000e+00   0.00000000e+00   0.00000000e+00
C  31.960453  34.050312  33.363556   0.00000000e+00   0.00000000e+00   0.00000000e+00
C  32.765862  33.579720  33.758995   0.00000000e+00   0.00000000e+00   0.00000000e+00
C  31.125355  34.817009  34.283875   0.00000000e+00   0.00000000e+00   0.00000000e+00
C  30.244383  34.266655  34.473476   0.00000000e+00   0.00000000e+00   0.00000000e+00
C  31.677183  35.079384  35.199032   0.00000000e+00   0.00000000e+00   0.00000000e+00
C  30.772409  35.739914  33.791836   0.00000000e+00   0.00000000e+00   0.00000000e+00
C  31.369606  29.448217  35.936474   0.00000000e+00   0.00000000e+00   0.00000000e+00
C  30.634903  30.273409  35.898575   0.00000000e+00   0.00000000e+00   0.00000000e+00
C  31.196169  31.103313  36.279007   0.00000000e+00   0.00000000e+00   0.00000000e+00
C  29.759350  29.995531  36.434097   0.00000000e+00   0.00000000e+00   0.00000000e+00
C  30.178928  30.511459  34.455074   0.00000000e+00   0.00000000e+00   0.00000000e+00
C  30.667946  29.903637  33.533794   0.00000000e+00   0.00000000e+00   0.00000000e+00
C  29.118954  31.287962  34.324238   0.00000000e+00   0.00000000e+00   0.00000000e+00
C  28.722668  31.814573  35.056618   0.00000000e+00   0.00000000e+00   0.00000000e+00
C  28.379269  31.525974  33.071033   0.00000000e+00   0.00000000e+00   0.00000000e+00
C  29.150867  31.436737  32.274452   0.00000000e+00   0.00000000e+00   0.00000000e+00
C  27.368338  30.402878  32.916843   0.00000000e+00   0.00000000e+00   0.00000000e+00
C  26.719986  30.464869  33.785603   0.00000000e+00   0.00000000e+00   0.00000000e+00
C  26.837915  30.534163  32.033943   0.00000000e+00   0.00000000e+00   0.00000000e+00
C  27.905521  29.432116  32.683113   0.00000000e+00   0.00000000e+00   0.00000000e+00
C  27.666231  32.888412  33.116177   0.00000000e+00   0.00000000e+00   0.00000000e+00
C  27.572588  33.488758  34.208714   0.00000000e+00   0.00000000e+00   0.00000000e+00
C  27.134617  33.177071  31.916063   0.00000000e+00   0.00000000e+00   0.00000000e+00
C  27.283943  32.596973  31.119379   0.00000000e+00   0.00000000e+00   0.00000000e+00
C  26.051207  34.184563  31.804527   0.00000000e+00   0.00000000e+00   0.00000000e+00
C  25.164841  33.699181  32.295712   0.00000000e+00   0.00000000e+00   0.00000000e+00
C  26.302990  35.106838  32.317333   0.00000000e+00   0.00000000e+00   0.00000000e+00
C  25.865431  34.474899  30.743719   0.00000000e+00   0.00000000e+00   0.00000000e+00
44
44
C  35.011429  29.614899  34.081169   0.00000000e+00   0.00000000e+00   0.00000000e+00
C  34.726059  30.518362  34.539429   0.00000000e+00   0.00000000e+00   0.00000000e+00
C  35.660286  30.913073  35.049381   0.00000000e+00   0.00000000e+00   0.00000000e+00
C  33.924885  30.444849  35.255173   0.00000000e+00   0.00000000e+00   0.00000000e+00
C  34.268562  31.523155  33.464333   0.00000000e+00   0.00000000e+00   0.00000000e+00
C  34.762558  32.649593  33.330486   0.00000000e+00   0.00000000e+00   0.00000000e+00
C  33.331169  31.110165  32.604946   0.00000000e+00   0.00000000e+00   0.00000000e+00
C  32.562347  30.567739  33.084709   0.00000000e+00   0.00000000e+00   0.00000000e+00
C  32.899704  31.823103  31.402630   0.00000000e+00   0.00000000e+00   0.00000000e+00
C  33.730343  32.303215  31.016037   0.00000000e+00   0.00000000e+00   0.00000000e+00
C  32.281635  30.934462  30.336946   0.00000000e+00   0.00000000e+00   0.00000000e+00
C  32.445267  31.424454  29.324953   0.00000000e+00   0.00000000e+00   0.00000000e+00
C  32.839657  30.012312  30.340422   0.00000000e+00   0.00000000e+00   0.00000000e+00
C  31.231466  30.765854  30.536133   0.00000000e+00   0.00000000e+00   0.00000000e+00
C  31.997887  33.026104  31.800774   0.00000000e+00   0.00000000e+00   0.00000000e+00
C  31.042690  33.323414  31.088034   0.00000000e+00   0.00000000e+00   0.00000000e+00
C  32.299305  33.712551  32.938126   0.00000000e+00   0.00000000e+00   0.00000000e+00
C  33.155712  33.401955  33.505219   0.00000000e+00   0.00000000e+00   0.00000000e+00
C  31.505320  34.804382  33.484943   0.00000000e+00   0.00000000e+00   0.00000000e+00
C  30.571510  34.895508  32.982948   0.00000000e+00   0.00000000e+00   0.00000000e+00
C  30.998379  34.535393  34.447639   0.00000000e+00   0.00000000e+00   0.00000000e+00
C  32.088932  35.643810  33.335018   0.00000000e+00   0.00000000e+00   0.00000000e+00
C  30.957588  30.860817  36.448429   0.00000000e+00   0.00000000e+00   0.00000000e+00
C  29.925932  31.061646  36.258778   0.00000000e+00   0.00000000e+00   0.00000000e+00
C  29.500340  31.910509  36.814907   0.00000000e+00   0.00000000e+00   0.00000000e+00
C  29.378448  30.189175  36.566769   0.00000000e+00   0.00000000e+00   0.00000000e+00
C  29.712095  31.135649  34.736065   0.00000000e+00   0.00000000e+00   0.00000000e+00
C  30.714643  30.909132  34.024269   0.00000000e+00   0.00000000e+00   0.00000000e+00
C  28.530329  31.612747  34.271561   0.00000000e+00   0.00000000e+00   0.00000000e+00
C  27.978151  32.140163  34.848759   0.00000000e+00   0.00000000e+00   0.00000000e+00
C  28.294306  31.784719  32.819149   0.00000000e+00   0.00000000e+00   0.00000000e+00
C  29.206722  31.725618  32.235733   0.00000000e+00   0.00000000e+00   0.00000000e+00
C  27.518040  30.588850  32.309612   0.00000000e+00   0.00000000e+00   0.00000000e+00
C  26.541199  30.580236  32.782669   0.00000000e+00   0.00000000e+00   0.00000000e+00
C  27.351532  30.793051  31.243408   0.00000000e+00   0.00000000e+00   0.00000000e+00
C  28.083878  29.660561  32.568817   0.00000000e+00   0.00000000e+00   0.00000000e+00
C  27.525824  33.023624  32.494217   0.00000000e+00   0.00000000e+00   0.00000000e+00
C  26.576200  33.358387  33.216286   0.00000000e+00   0.00000000e+00   0.00000000e+00
C  27.944115  33.636635  31.355652   0.00000000e+00   0.00000000e+00   0.00000000e+00
C  28.835020  33.407661  30.980759   0.00000000e+00   0.00000000e+00   0.00000000e+00
C  27.241892  34.652672  30.609573   0.00000000e+00   0.00000000e+00   0.00000000e+00
C  26.176811  34.310757  30.495491   0.00000000e+00   0.00000000e+00   0.00000000e+00
C  27.253820  35.604874  31.109999   0.00000000e+00   0.00000000e+00   0.00000000e+00
C  27.671574  34.678337  29.595467   0.00000000e+00   0.00000000e+00   0.00000000e+00
44
44
C  35.425274  29.822741  32.563698   0.00000000e+00   0.00000000e+00   0.00000000e+00
C  34.942196  30.746864  33.020855   0.00000000e+00   0.00000000e+00   0.00000000e+00
C  35.788315  31.359526  33.443779   0.00000000e+00   0.00000000e+00   0.00000000e+00
C  34.286610  30.377892  33.879810   0.00000000e+00   0.00000000e+00   0.00000000e+00
C  34.227142  31.627228  32.034359   0.00000000e+00   0.00000000e+00   0.00000000e+00
C  34.842354  32.663277  31.856192   0.00000000e+00   0.00000000e+00   0.00000000e+00
C  33.142231  31.264341  31.323444   0.00000000e+00   0.00000000e+00   0.00000000e+00
C  32.673595  30.407396  31.544561   0.00000000e+00   0.00000000e+00   0.00000000e+00
C  32.779541  32.079697  30.200474   0.00000000e+00   0.00000000e+00   0.00000000e+00
C  33.562923  32.753544  29.851713   0.00000000e+00   0.00000000e+00   0.00000000e+00
C  32.383980  31.161602  29.124651   0.00000000e+00   0.00000000e+00   0.00000000e+00
C  31.997816  31.621668  28.209700   0.00000000e+00   0.00000000e+00   0.00000000e+00
C  33.238575  30.509171  28.778095   0.00000000e+00   0.00000000e+00   0.00000000e+00
C  31.490389  30.558413  29.270010   0.00000000e+00   0.00000000e+00   0.00000000e+00
C  31.688940  33.124573  30.622557   0.00000000e+00   0.00000000e+00   0.00000000e+00
C  30.623198  33.192036  30.016445   0.00000000e+00   0.00000000e+00   0.00000000e+00
C  32.096249  33.914730  31.609890   0.00000000e+00   0.00000000e+00   0.00000000e+00
C  33.017067  33.715054  32.018661   0.00000000e+00   0.00000000e+00   0.00000000e+00
C  31.308575  34.801239  32.474228   0.00000000e+00   0.00000000e+00   0.00000000e+00
C  30.236526  34.613251  32.275074   0.00000000e+00   0.00000000e+00   0.00000000e+00
C  31.600622  34.619102  33.521664   0.00000000e+00   0.00000000e+00   0.00000000e+00
C  31.443981  35.835884  32.094032   0.00000000e+00   0.00000000e+00   0.00000000e+00
C  30.797346  30.025234  35.572216   0.00000000e+00   0.00000000e+00   0.00000000e+00
C  29.885427  30.622999  35.429695   0.00000000e+00   0.00000000e+00   0.00000000e+00
C  29.800247  31.344486  36.176617   0.00000000e+00   0.00000000e+00   0.00000000e+00
C  29.015518  29.949135  35.512390   0.00000000e+00   0.00000000e+00   0.00000000e+00
C  29.854294  31.168245  34.098114   0.00000000e+00   0.00000000e+00   0.00000000e+00
C  30.874887  31.011503  33.466938   0.00000000e+00   0.00000000e+00   0.00000000e+00
C  28.793680  31.858675  33.605400   0.00000000e+00   0.00000000e+00   0.00000000e+00
C  28.065662  32.216469  34.300091   0.00000000e+00   0.00000000e+00   0.00000000e+00
C  28.435192  32.054192  32.219975   0.00000000e+00   0.00000000e+00   0.00000000e+00
C  29.270308  32.248077  31.568260   0.00000000e+00   0.00000000e+00   0.00000000e+00
C  27.789162  30.725348  31.669662   0.00000000e+00   0.00000000e+00   0.00000000e+00
C  27.027308  30.469124  32.426445   0.00000000e+00   0.00000000e+00   0.00000000e+00
C  27.399563  31.071424  30.703983   0.00000000e+00   0.00000000e+00   0.00000000e+00
C  28.578581  29.909479  31.522589   0.00000000e+00   0.00000000e+00   0.00000000e+00
C  27.470146  33.278816  32.113102   0.00000000e+00   0.00000000e+00   0.00000000e+00
C  26.682549  33.538773  33.002106   0.00000000e+00   0.00000000e+00   0.00000000e+00
C  27.686659  34.049770  31.054546   0.00000000e+00   0.00000000e+00   0.00000000e+00
C  28.451698  33.895176  30.442087   0.00000000e+00   0.00000000e+00   0.00000000e+00
C  27.004004  35.287743  30.768339   0.00000000e+00   0.00000000e+00   0.00000000e+00
C  25.915052  35.097107  30.843420   0.00000000e+00   0.00000000e+00   0.00000000e+00
C  27.224167  35.972904  31.536224   0.00000000e+00   0.00000000e+00   0.00000000e+00
C  27.305635  35.770210  29.838022   0.00000000e+00   0.00000000e+00   0.00000000e+00
44
44
C  34.846596  28.919312  32.670082   0.00000000e+00   0.00000000e+00   0.00000000e+00
C  34.715939  29.825958  33.166183   0.00000000e+00   0.00000000e+00   0.00000000e+00
C  35.638382  30.009354  33.753616   0.00000000e+00   0.00000000e+00   0.00000000e+00
C  33.916077  29.787287  33.905582   0.00000000e+00   0.00000000e+00   0.00000000e+00
C  34.371532  31.000257  32.289963   0.00000000e+00   0.00000000e+00   0.00000000e+00
C  34.950085  32.092743  32.380367   0.00000000e+00   0.00000000e+00   0.00000000e+00
C  33.239483  30.950510  31.565536   0.00000000e+00   0.00000000e+00   0.00000000e+00
C  32.582214  30.198767  31.716429   0.00000000e+00   0.00000000e+00   0.00000000e+00
C  32.784653  31.976622  30.621729   0.00000000e+00   0.00000000e+00   0.00000000e+00
C  33.710155  32.399807  30.189762   0.00000000e+00   0.00000000e+00   0.00000000e+00
C  31.920477  31.518358  29.407064   0.00000000e+00   0.00000000e+00   0.00000000e+00
C  31.826410  32.302792  28.703157   0.00000000e+00   0.00000000e+00   0.00000000e+00
C  32.399864  30.694946  28.964848   0.00000000e+00   0.00000000e+00   0.00000000e+00
C  31.092367  31.129705  29.937120   0.00000000e+00   0.00000000e+00   0.00000000e+00
C  32.155003  33.236408  31.343792   0.00000000e+00   0.00000000e+00   0.00000000e+00
C  30.986259  33.570679  31.033579   0.00000000e+00   0.00000000e+00   0.00000000e+00
C  32.814201  33.846264  32.355610   0.00000000e+00   0.00000000e+00   0.00000000e+00
C  33.743725  33.547165  32.491325   0.00000000e+00   0.00000000e+00   0.00000000e+00
C  32.275009  34.851246  33.243652   0.00000000e+00   0.00000000e+00   0.00000000e+00
C  32.338104  35.864182  32.790245   0.00000000e+00   0.00000000e+00   0.00000000e+00
C  31.203297  34.547344  33.440266   0.00000000e+00   0.00000000e+00   0.00000000e+00
C  32.817039  34.940407  34.213810   0.00000000e+00   0.00000000e+00   0.00000000e+00
C  31.527708  29.752310  35.079155   0.00000000e+00   0.00000000e+00   0.00000000e+00
C  31.098316  30.751753  34.969963   0.00000000e+00   0.00000000e+00   0.00000000e+00
C  31.923204  31.486860  34.932926   0.00000000e+00   0.00000000e+00   0.00000000e+00
C  30.329037  30.947222  35.761772   0.00000000e+00   0.00000000e+00   0.00000000e+00
C  30.391394  30.705681  33.687603   0.00000000e+00   0.00000000e+00   0.00000000e+00
C  30.811649  30.055349  32.752728   0.00000000e+00   0.00000000e+00   0.00000000e+00
C  29.437857  31.672842  33.584938   0.00000000e+00   0.00000000e+00   0.00000000e+00
C  29.094170  32.197376  34.355976   0.00000000e+00   0.00000000e+00   0.00000000e+00
C  28.675072  31.924124  32.380924   0.00000000e+00   0.00000000e+00   0.00000000e+00
C  29.368166  31.757463  31.498362   0.00000000e+00   0.00000000e+00   0.00000000e+00
C  27.574451  30.850317  32.237301   0.00000000e+00   0.00000000e+00   0.00000000e+00
C  26.823477  31.007915  33.041588   0.00000000e+00   0.00000000e+00   0.00000000e+00
C  26.962887  30.899267  31.356993   0.00000000e+00   0.00000000e+00   0.00000000e+00
C  27.857090  29.776342  32.252010   0.00000000e+00   0.00000000e+00   0.00000000e+00
C  28.061230  33.294853  32.373783   0.00000000e+00   0.00000000e+00   0.00000000e+00
C  27.586084  33.778671  33.385872   0.00000000e+00   0.00000000e+00   0.00000000e+00
C  28.108828  33.895294  31.179674   0.00000000e+00   0.00000000e+00   0.00000000e+00
C  28.477703  33.340893  30.444544   0.00000000e+00   0.00000000e+00   0.00000000e+00
C  27.825184  35.279030  30.827972   0.00000000e+00   0.00000000e+00   0.00000000e+00
C  26.811945  35.335800  30.360910   0.00000000e+00   0.00000000e+00   0.00000000e+00
C  27.910479  35.921345  31.717918   0.00000000e+00   0.00000000e+00   0.00000000e+00
C  28.535076  35.536545  30.031517   0.00000000e+00   0.00000000e+00   0.00000000e+00
44
44
C  34.956432  28.852541  32.748013   0.00000000e+00   0.00000000e+00   0.00000000e+00
C  34.976467  29.731997  33.361847   0.00000000e+00   0.00000000e+00   0.00000000e+00
C  35.887287  29.894022  33.894886   0.00000000e+00   0.00000000e+00   0.00000000e+00
C  34.263275  29.455944  34.054737   0.00000000e+00   0.00000000e+00   0.00000000e+00
C  34.653252  30.999720  32.581181   0.00000000e+00   0.00000000e+00   0.00000000e+00
C  35.334362  32.007729  32.764454   0.00000000e+00   0.00000000e+00   0.00000000e+00
C  33.586998  31.002178  31.741434   0.00000000e+00   0.00000000e+00   0.00000000e+00
C  32.980885  30.161612  31.825531   0.00000000e+00   0.00000000e+00   0.00000000e+00
C  33.134529  32.037712  30.839134   0.00000000e+00   0.00000000e+00   0.00000000e+00
C  34.068806  32.331348  30.411137   0.00000000e+00   0.00000000e+00   0.00000000e+00
C  32.304989  31.355330  29.752663   0.00000000e+00   0.00000000e+00   0.00000000e+00
C  32.150856  32.109238  28.984953   0.00000000e+00   0.00000000e+00   0.00000000e+00
C  32.647980  30.434048  29.235832   0.00000000e+00   0.00000000e+00   0.00000000e+00
C  31.358683  31.089809  30.131777   0.00000000e+00   0.00000000e+00   0.00000000e+00
C  32.584248  33.418465  31.472773   0.00000000e+00   0.00000000e+00   0.00000000e+00
C  31.616543  33.841892  30.894711   0.00000000e+00   0.00000000e+00   0.00000000e+00
C  33.101505  33.814957  32.606377   0.00000000e+00   0.00000000e+00   0.00000000e+00
C  33.894375  33.233280  32.921028   0.00000000e+00   0.00000000e+00   0.00000000e+00
C  32.425003  34.817451  33.395390   0.00000000e+00   0.00000000e+00   0.00000000e+00
C  32.146362  35.659573  32.749962   0.00000000e+00   0.00000000e+00   0.00000000e+00
C  31.478106  34.364231  33.809006   0.00000000e+00   0.00000000e+00   0.00000000e+00
C  33.159111  35.154869  34.126881   0.00000000e+00   0.00000000e+00   0.00000000e+00
C  31.759987  31.164982  36.027885   0.00000000e+00   0.00000000e+00   0.00000000e+00
C  30.685484  31.321108  35.904415   0.00000000e+00   0.00000000e+00   0.00000000e+00
C  30.424717  32.212605  36.505020   0.00000000e+00   0.00000000e+00   0.00000000e+00
C  30.134939  30.422560  36.254913   0.00000000e+00   0.00000000e+00   0.00000000e+00
C  30.400917  31.581686  34.432747   0.00000000e+00   0.00000000e+00   0.00000000e+00
C  31.311089  31.189533  33.649540   0.00000000e+00   0.00000000e+00   0.00000000e+00
C  29.198347  32.154179  34.065281   0.00000000e+00   0.00000000e+00   0.00000000e+00
C  28.507824  32.551304  34.693192   0.00000000e+00   0.00000000e+00   0.00000000e+00
C  28.912428  32.377125  32.661781   0.00000000e+00   0.00000000e+00   0.00000000e+00
C  29.849615  32.429058  32.155651   0.00000000e+00   0.00000000e+00   0.00000000e+00
C  28.013714  31.267614  32.106674   0.00000000e+00   0.00000000e+00   0.00000000e+00
C  27.052364  31.300823  32.617409   0.00000000e+00   0.00000000e+00   0.00000000e+00
C  27.850792  31.551979  31.093538   0.00000000e+00   0.00000000e+00   0.00000000e+00
C  28.407778  30.265818  32.238907   0.00000000e+00   0.00000000e+00   0.00000000e+00
C  28.259706  33.768761  32.511257   0.00000000e+00   0.00000000e+00   0.00000000e+00
C  27.228868  34.119213  33.072361   0.00000000e+00   0.00000000e+00   0.00000000e+00
C  28.747355  34.626003  31.586716   0.00000000e+00   0.00000000e+00   0.00000000e+00
C  29.584490  34.259357  31.152512   0.00000000e+00   0.00000000e+00   0.00000000e+00
C  28.248301  35.971905  31.281416   0.00000000e+00   0.00000000e+00   0.00000000e+00
C  27.959293  36.143284  30.237339   0.00000000e+00   0.00000000e+00   0.00000000e+00
C  27.382109  36.137985  31.847237   0.00000000e+00   0.00000000e+00   0.00000000e+00
C  29.051985  36.628040  31.725630   0.00000000e+00   0.00000000e+00   0.00000000e+00
44
44
C  35.012497  28.671667  33.770485   0.00000000e+00   0.00000000e+00   0.00000000e+00
C  34.862896  29.763010  34.028267   0.00000000e+00   0.00000000e+00   0.00000000e+00
C  35.620281  30.196457  34.699150   0.00000000e+00   0.00000000e+00   0.00000000e+00
C  33.943596  29.837151  34.629429   0.00000000e+00   0.00000000e+00   0.00000000e+00
C  34.718693  30.615185  32.832150   0.00000000e+00   0.00000000e+00   0.00000000e+00
C  35.550552  31.481361  32.646553   0.00000000e+00   0.00000000e+00   0.00000000e+00
C  33.662952  30.453344  32.070881   0.00000000e+00   0.00000000e+00   0.00000000e+00
C  32.957420  29.788944  32.270908   0.00000000e+00   0.00000000e+00   0.00000000e+00
C  33.245018  31.314566  30.976442   0.00000000e+00   0.00000000e+00   0.00000000e+00
C  34.117138  31.627916  30.396667   0.00000000e+00   0.00000000e+00   0.00000000e+00
C  32.333649  30.562321  30.084160   0.00000000e+00   0.00000000e+00   0.00000000e+00
C  32.129986  31.165115  29.140295   0.00000000e+00   0.00000000e+00   0.00000000e+00
C  32.865776  29.699734  29.697052   0.00000000e+00   0.00000000e+00   0.00000000e+00
C  31.283903  30.404495  30.446472   0.00000000e+00   0.00000000e+00   0.00000000e+00
C  32.646286  32.614082  31.462635   0.00000000e+00   0.00000000e+00   0.00000000e+00
C  31.735506  33.135170  30.873222   0.00000000e+00   0.00000000e+00   0.00000000e+00
C  33.145412  33.226460  32.590347   0.00000000e+00   0.00000000e+00   0.00000000e+00
C  33.933018  32.890564  33.104671   0.00000000e+00   0.00000000e+00   0.00000000e+00
C  32.534016  34.389420  33.288692   0.00000000e+00   0.00000000e+00   0.00000000e+00
C  32.181759  35.151180  32.526272   0.00000000e+00   0.00000000e+00   0.00000000e+00
C  31.681448  34.015186  33.943417   0.00000000e+00   0.00000000e+00   0.00000000e+00
C  33.302036  34.924171  33.940498   0.00000000e+00   0.00000000e+00   0.00000000e+00
C  29.334003  30.014782  36.099712   0.00000000e+00   0.00000000e+00   0.00000000e+00
C  30.228434  30.369268  35.578175   0.00000000e+00   0.00000000e+00   0.00000000e+00
C  31.025892  29.620857  35.629219   0.00000000e+00   0.00000000e+00   0.00000000e+00
C  30.613237  31.212963  36.134323   0.00000000e+00   0.00000000e+00   0.00000000e+00
C  29.862917  30.641148  34.162178   0.00000000e+00   0.00000000e+00   0.00000000e+00
C  30.380253  29.978155  33.273029   0.00000000e+00   0.00000000e+00   0.00000000e+00
C  29.204998  31.733532  33.858772   0.00000000e+00   0.00000000e+00   0.00000000e+00
C  28.901255  32.314880  34.643803   0.00000000e+00   0.00000000e+00   0.00000000e+00
C  28.913589  32.133453  32.467575   0.00000000e+00   0.00000000e+00   0.00000000e+00
C  29.775715  31.982996  31.861162   0.00000000e+00   0.00000000e+00   0.00000000e+00
C  27.746857  31.326786  31.901588   0.00000000e+00   0.00000000e+00   0.00000000e+00
C  26.929987  31.501719  32.498878   0.00000000e+00   0.00000000e+00   0.00000000e+00
C  27.447254  31.634647  30.903437   0.00000000e+00   0.00000000e+00   0.00000000e+00
C  27.913347  30.276850  31.946377   0.00000000e+00   0.00000000e+00   0.00000000e+00
C  28.606373  33.642212  32.525074   0.00000000e+00   0.00000000e+00   0.00000000e+00
C  28.129847  34.262039  33.507492   0.00000000e+00   0.00000000e+00   0.00000000e+00
C  28.848253  34.334702  31.401915   0.00000000e+00   0.00000000e+00   0.00000000e+00
C  29.350245  33.816216  30.679962   0.00000000e+00   0.00000000e+00   0.00000000e+00
C  28.206877  35.586761  31.064871   0.00000000e+00   0.00000000e+00   0.00000000e+00
C  27.191877  35.348927  30.658354   0.00000000e+00   0.00000000e+00   0.00000000e+00
C  28.098000  36.141552  31.972366   0.00000000e+00   0.00000000e+00   0.00000000e+00
C  28.697718  36.156132  30.340405   0.00000000e+00   0.00000000e+00   0.00000000e+00
44
44
C  34.813988  27.831894  33.129436   0.00000000e+00   0.00000000e+00   0.00000000e+00
C  34.036198  28.554951  33.248253   0.00000000e+00   0.00000000e+00   0.00000000e+00
C  33.979401  28.897297  34.248512   0.00000000e+00   0.00000000e+00   0.00000000e+00
C  33.023449  28.177885  33.040897   0.00000000e+00   0.00000000e+00   0.00000000e+00
C  34.269623  29.735073  32.321793   0.00000000e+00   0.00000000e+00   0.00000000e+00
C  35.255573  30.451187  32.490612   0.00000000e+00   0.00000000e+00   0.00000000e+00
C  33.338093  30.113565  31.426702   0.00000000e+00   0.00000000e+00   0.00000000e+00
C  32.677200  29.432283  31.252806   0.00000000e+00   0.00000000e+00   0.00000000e+00
C  33.299091  31.359936  30.659168   0.00000000e+00   0.00000000e+00   0.00000000e+00
C  34.355049  31.550175  30.182775   0.00000000e+00   0.00000000e+00   0.00000000e+00
C  32.280624  31.183266  29.540291   0.00000000e+00   0.00000000e+00   0.00000000e+00
C  32.655499  31.839323  28.692423   0.00000000e+00   0.00000000e+00   0.00000000e+00
C  32.303070  30.222107  29.070154   0.00000000e+00   0.00000000e+00   0.00000000e+00
C  31.222988  31.383213  29.894363   0.00000000e+00   0.00000000e+00   0.00000000e+00
C  33.076595  32.632103  31.507784   0.00000000e+00   0.00000000e+00   0.00000000e+00
C  32.660709  33.633350  30.937340   0.00000000e+00   0.00000000e+00   0.00000000e+00
C  33.531593  32.785294  32.701630   0.00000000e+00   0.00000000e+00   0.00000000e+00
C  33.977253  31.946348  33.039360   0.00000000e+00   0.00000000e+00   0.00000000e+00
C  33.422775  33.876175  33.633022   0.00000000e+00   0.00000000e+00   0.00000000e+00
C  33.576614  34.868134  33.178951   0.00000000e+00   0.00000000e+00   0.00000000e+00
C  32.483406  33.799740  34.217045   0.00000000e+00   0.00000000e+00   0.00000000e+00
C  34.266666  33.724277  34.268417   0.00000000e+00   0.00000000e+00   0.00000000e+00
C  30.178976  32.340179  36.700699   0.00000000e+00   0.00000000e+00   0.00000000e+00
C  30.199154  31.389915  36.172810   0.00000000e+00   0.00000000e+00   0.00000000e+00
C  29.343924  30.832813  36.278988   0.00000000e+00   0.00000000e+00   0.00000000e+00
C  31.096212  30.894634  36.664928   0.00000000e+00   0.00000000e+00   0.00000000e+00
C  30.353380  31.568117  34.684715   0.00000000e+00   0.00000000e+00   0.00000000e+00
C  31.420740  31.235249  34.157909   0.00000000e+00   0.00000000e+00   0.00000000e+00
C  29.295242  32.070511  33.986034   0.00000000e+00   0.00000000e+00   0.00000000e+00
C  28.569868  32.528633  34.467339   0.00000000e+00   0.00000000e+00   0.00000000e+00
C  29.210354  32.197670  32.521366   0.00000000e+00   0.00000000e+00   0.00000000e+00
C  30.102709  31.737139  32.086723   0.00000000e+00   0.00000000e+00   0.00000000e+00
C  28.055088  31.310881  31.985743   0.00000000e+00   0.00000000e+00   0.00000000e+00
C  27.183075  31.405130  32.675945   0.00000000e+00   0.00000000e+00   0.00000000e+00
C  27.675190  31.630037  31.048120   0.00000000e+00   0.00000000e+00   0.00000000e+00
C  28.396547  30.276287  31.814405   0.00000000e+00   0.00000000e+00   0.00000000e+00
C  28.971464  33.652924  32.034004   0.00000000e+00   0.00000000e+00   0.00000000e+00
C  28.117477  34.413589  32.571045   0.00000000e+00   0.00000000e+00   0.00000000e+00
C  29.656643  34.048714  31.037611   0.00000000e+00   0.00000000e+00   0.00000000e+00
C  30.435146  33.538570  30.710863   0.00000000e+00   0.00000000e+00   0.00000000e+00
C  29.413822  35.274525  30.249985   0.00000000e+00   0.00000000e+00   0.00000000e+00
C  29.323587  36.005733  30.966347   0.00000000e+00   0.00000000e+00   0.00000000e+00
C  30.202335  35.451954  29.548428   0.00000000e+00   0.00000000e+00   0.00000000e+00
C  28.437471  35.078342  29.768700   0.00000000e+00   0.00000000e+00   0.00000000e+00
44
44
C  35.588764  28.830982  32.965546   0.00000000e+00   0.00000000e+00   0.00000000e+00
C  34.519913  28.659859  32.621346   0.00000000e+00   0.00000000e+00   0.00000000e+00
C  33.897919  28.751928  33.521873   0.00000000e+00   0.00000000e+00   0.00000000e+00
C  34.573540  27.652819  32.169643   0.00000000e+00   0.00000000e+00   0.00000000e+00
C  34.098606  29.640184  31.628544   0.00000000e+00   0.00000000e+00   0.00000000e+00
C  35.006889  30.307468  31.085867   0.00000000e+00   0.00000000e+00   0.00000000e+00
C  32.802681  29.745075  31.256805   0.00000000e+00   0.00000000e+00   0.00000000e+00
C  32.119473  29.170681  31.787777   0.00000000e+00   0.00000000e+00   0.00000000e+00
C  32.345467  31.004410  30.549841   0.00000000e+00   0.00000000e+00   0.00000000e+00
C  33.180992  31.261860  29.915421   0.00000000e+00   0.00000000e+00   0.00000000e+00
C  31.090860  30.539068  29.832010   0.00000000e+00   0.00000000e+00   0.00000000e+00
C  30.602060  31.439203  29.369978   0.00000000e+00   0.00000000e+00   0.00000000e+00
C  31.167351  29.822546  29.041941   0.00000000e+00   0.00000000e+00   0.00000000e+00
C  30.482685  30.136257  30.598005   0.00000000e+00   0.00000000e+00   0.00000000e+00
C  32.297028  32.264393  31.378252   0.00000000e+00   0.00000000e+00   0.00000000e+00
C  31.758039  33.260719  30.881819   0.00000000e+00   0.00000000e+00   0.00000000e+00
C  32.759441  32.241905  32.606163   0.00000000e+00   0.00000000e+00   0.00000000e+00
C  33.340633  31.424595  32.864079   0.00000000e+00   0.00000000e+00   0.00000000e+00
C  32.638191  33.293888  33.613819   0.00000000e+00   0.00000000e+00   0.00000000e+00
C  32.810257  34.266499  33.235462   0.00000000e+00   0.00000000e+00   0.00000000e+00
C  31.599424  33.179234  33.961151   0.00000000e+00   0.00000000e+00   0.00000000e+00
C  33.400108  33.123337  34.366058   0.00000000e+00   0.00000000e+00   0.00000000e+00
C  30.699579  30.118084  35.829445   0.00000000e+00   0.00000000e+00   0.00000000e+00
C  30.062748  29.495108  35.310459   0.00000000e+00   0.00000000e+00   0.00000000e+00
C  29.213911  29.372835  35.937321   0.00000000e+00   0.00000000e+00   0.00000000e+00
C  30.472214  28.517155  35.428207   0.00000000e+00   0.00000000e+00   0.00000000e+00
C  29.984921  30.013607  33.934761   0.00000000e+00   0.00000000e+00   0.00000000e+00
C  30.599562  29.462212  33.042698   0.00000000e+00   0.00000000e+00   0.00000000e+00
C  29.101492  30.942001  33.792717   0.00000000e+00   0.00000000e+00   0.00000000e+00
C  28.683374  31.447971  34.600212   0.00000000e+00   0.00000000e+00   0.00000000e+00
C  28.875603  31.541090  32.474781   0.00000000e+00   0.00000000e+00   0.00000000e+00
C  29.801809  31.582752  31.801126   0.00000000e+00   0.00000000e+00   0.00000000e+00
C  27.728619  30.777264  31.838091   0.00000000e+00   0.00000000e+00   0.00000000e+00
C  26.767979  30.813349  32.466217   0.00000000e+00   0.00000000e+00   0.00000000e+00
C  27.410553  31.207495  30.886398   0.00000000e+00   0.00000000e+00   0.00000000e+00
C  27.965034  29.754236  31.674639   0.00000000e+00   0.00000000e+00   0.00000000e+00
C  28.463457  33.072594  32.750935   0.00000000e+00   0.00000000e+00   0.00000000e+00
C  27.866035  33.390797  33.725212   0.00000000e+00   0.00000000e+00   0.00000000e+00
C  28.981401  34.023220  31.954578   0.00000000e+00   0.00000000e+00   0.00000000e+00
C  29.678247  33.764454  31.294424   0.00000000e+00   0.00000000e+00   0.00000000e+00
C  28.295311  35.315937  31.745960   0.00000000e+00   0.00000000e+00   0.00000000e+00
C  27.260918  35.151638  31.650522   0.00000000e+00   0.00000000e+00   0.00000000e+00
C  28.695139  36.091736  32.488667   0.00000000e+00   0.00000000e+00   0.00000000e+00
C  28.678570  35.682224  30.775440   0.00000000e+00   0.00000000e+00   0.00000000e+00
44
44
C  34.308777  27.299679  30.940166   0.00000000e+00   0.00000000e+00   0.00000000e+00
C  34.260479  27.961481  31.754925   0.00000000e+00   0.00000000e+00   0.00000000e+00
C  35.235779  27.917234  32.236519   0.00000000e+00   0.00000000e+00   0.00000000e+00
C  33.450283  27.547808  32.371529   0.00000000e+00   0.00000000e+00   0.00000000e+00
C  33.888607  29.305243  31.289019   0.00000000e+00   0.00000000e+00   0.00000000e+00
C  34.740471  30.149076  31.271172   0.00000000e+00   0.00000000e+00   0.00000000e+00
C  32.576332  29.621561  30.935930   0.00000000e+00   0.00000000e+00   0.00000000e+00
C  31.913008  28.849096  31.098412   0.00000000e+00   0.00000000e+00   0.00000000e+00
C  32.081551  30.926275  30.459751   0.00000000e+00   0.00000000e+00   0.00000000e+00
C  32.858624  31.205317  29.781582   0.00000000e+00   0.00000000e+00   0.00000000e+00
C  30.899694  30.625931  29.582035   0.00000000e+00   0.00000000e+00   0.00000000e+00
C  30.670174  31.540854  28.912861   0.00000000e+00   0.00000000e+00   0.00000000e+00
C  30.950853  29.773129  28.954304   0.00000000e+00   0.00000000e+00   0.00000000e+00
C  29.973785  30.611689  30.127077   0.00000000e+00   0.00000000e+00   0.00000000e+00
C  31.887043  32.199329  31.438950   0.00000000e+00   0.00000000e+00   0.00000000e+00
C  31.183167  33.212654  31.152567   0.00000000e+00   0.00000000e+00   0.00000000e+00
C  32.611385  32.202240  32.560181   0.00000000e+00   0.00000000e+00   0.00000000e+00
C  33.070915  31.355644  32.848705   0.00000000e+00   0.00000000e+00   0.00000000e+00
C  32.621120  33.250393  33.486012   0.00000000e+00   0.00000000e+00   0.00000000e+00
C  31.611639  33.657108  33.574913   0.00000000e+00   0.00000000e+00   0.00000000e+00
C  33.103630  32.989227  34.457626   0.00000000e+00   0.00000000e+00   0.00000000e+00
C  33.259502  34.085163  33.049965   0.00000000e+00   0.00000000e+00   0.00000000e+00
C  31.077772  31.374313  36.650867   0.00000000e+00   0.00000000e+00   0.00000000e+00
C  31.106020  30.308029  36.249657   0.00000000e+00   0.00000000e+00   0.00000000e+00
C  30.488747  29.688786  36.889896   0.00000000e+00   0.00000000e+00   0.00000000e+00
C  32.098175  29.927931  36.246967   0.00000000e+00   0.00000000e+00   0.00000000e+00
C  30.655251  30.297867  34.792633   0.00000000e+00   0.00000000e+00   0.00000000e+00
C  31.343718  29.756046  33.900467   0.00000000e+00   0.00000000e+00   0.00000000e+00
C  29.515352  30.936577  34.595287   0.00000000e+00   0.00000000e+00   0.00000000e+00
C  29.067398  31.334162  35.435329   0.00000000e+00   0.00000000e+00   0.00000000e+00
C  28.869585  31.181686  33.267120   0.00000000e+00   0.00000000e+00   0.00000000e+00
C  29.661512  31.445665  32.534267   0.00000000e+00   0.00000000e+00   0.00000000e+00
C  28.064732  29.933987  32.825840   0.00000000e+00   0.00000000e+00   0.00000000e+00
C  27.330168  29.703672  33.548637   0.00000000e+00   0.00000000e+00   0.00000000e+00
C  27.594318  30.053003  31.869316   0.00000000e+00   0.00000000e+00   0.00000000e+00
C  28.622992  29.044388  32.786697   0.00000000e+00   0.00000000e+00   0.00000000e+00
C  28.012983  32.448479  33.324268   0.00000000e+00   0.00000000e+00   0.00000000e+00
C  27.308626  32.749321  34.329033   0.00000000e+00   0.00000000e+00   0.00000000e+00
C  27.988228  33.196114  32.149830   0.00000000e+00   0.00000000e+00   0.00000000e+00
C  28.652937  32.863441  31.467031   0.00000000e+00   0.00000000e+00   0.00000000e+00
C  27.261404  34.429119  31.819006   0.00000000e+00   0.00000000e+00   0.00000000e+00
C  27.100576  34.525845  30.804903   0.00000000e+00   0.00000000e+00   0.00000000e+00
C  26.275387  34.444614  32.282681   0.00000000e+00   0.00000000e+00   0.00000000e+00
C  27.778034  35.306107  32.069878   0.00000000e+00   0.00000000e+00   0.00000000e+00
44
44
C  33.977276  27.718048  31.888885   0.00000000e+00   0.00000000e+00   0.00000000e+00
C  33.560047  28.578793  32.473225   0.00000000e+00   0.00000000e+00   0.00000000e+00
C  34.171154  28.909637  33.287380   0.00000000e+00   0.00000000e+00   0.00000000e+00
C  32.576176  28.287912  32.739521   0.00000000e+00   0.00000000e+00   0.00000000e+00
C  33.425575  29.748196  31.543036   0.00000000e+00   0.00000000e+00   0.00000000e+00
C  34.466686  30.449383  31.371235   0.00000000e+00   0.00000000e+00   0.00000000e+00
C  32.282829  29.856384  30.936808   0.00000000e+00   0.00000000e+00   0.00000000e+00
C  31.492764  29.310715  31.265850   0.00000000e+00   0.00000000e+00   0.00000000e+00
C  31.875586  31.069654  30.175835   0.00000000e+00   0.00000000e+00   0.00000000e+00
C  32.802612  31.406481  29.649757   0.00000000e+00   0.00000000e+00   0.00000000e+00
C  30.874445  30.674618  29.062355   0.00000000e+00   0.00000000e+00   0.00000000e+00
C  30.750502  31.435833  28.288757   0.00000000e+00   0.00000000e+00   0.00000000e+00
C  31.325647  29.886173  28.480507   0.00000000e+00   0.00000000e+00   0.00000000e+00
C  30.013262  30.189960  29.520903   0.00000000e+00   0.00000000e+00   0.00000000e+00
C  31.352976  32.159653  31.108774   0.00000000e+00   0.00000000e+00   0.00000000e+00
C  30.368279  32.825275  30.796185   0.00000000e+00   0.00000000e+00   0.00000000e+00
C  32.020195  32.370274  32.321350   0.00000000e+00   0.00000000e+00   0.00000000e+00
C  32.864017  31.929945  32.399300   0.00000000e+00   0.00000000e+00   0.00000000e+00
C  31.842796  33.555443  33.200314   0.00000000e+00   0.00000000e+00   0.00000000e+00
C  31.147476  33.407360  34.017250   0.00000000e+00   0.00000000e+00   0.00000000e+00
C  32.780750  33.909054  33.554539   0.00000000e+00   0.00000000e+00   0.00000000e+00
C  31.382942  34.308456  32.670048   0.00000000e+00   0.00000000e+00   0.00000000e+00
C  30.551125  31.275616  36.471935   0.00000000e+00   0.00000000e+00   0.00000000e+00
C  30.980631  30.343594  36.118233   0.00000000e+00   0.00000000e+00   0.00000000e+00
C  30.917429  29.580189  36.819603   0.00000000e+00   0.00000000e+00   0.00000000e+00
C  31.977997  30.536104  35.883873   0.00000000e+00   0.00000000e+00   0.00000000e+00
C  30.309004  30.070009  34.823971   0.00000000e+00   0.00000000e+00   0.00000000e+00
C  30.843309  29.437910  33.866524   0.00000000e+00   0.00000000e+00   0.00000000e+00
C  29.155924  30.652945  34.572201   0.00000000e+00   0.00000000e+00   0.00000000e+00
C  28.685278  31.076431  35.406094   0.00000000e+00   0.00000000e+00   0.00000000e+00
C  28.551165  30.879232  33.201168   0.00000000e+00   0.00000000e+00   0.00000000e+00
C  29.324083  30.864820  32.446056   0.00000000e+00   0.00000000e+00   0.00000000e+00
C  27.669344  29.572178  33.087955   0.00000000e+00   0.00000000e+00   0.00000000e+00
C  27.024649  29.326548  33.971386   0.00000000e+00   0.00000000e+00   0.00000000e+00
C  27.067493  29.721296  32.211620   0.00000000e+00   0.00000000e+00   0.00000000e+00
C  28.362316  28.708370  32.929497   0.00000000e+00   0.00000000e+00   0.00000000e+00
C  27.811714  32.245846  33.211956   0.00000000e+00   0.00000000e+00   0.00000000e+00
C  27.368279  32.642540  34.294483   0.00000000e+00   0.00000000e+00   0.00000000e+00
C  27.707685  32.972660  32.131332   0.00000000e+00   0.00000000e+00   0.00000000e+00
C  28.182291  32.644154  31.294815   0.00000000e+00   0.00000000e+00   0.00000000e+00
C  27.102259  34.373192  32.092648   0.00000000e+00   0.00000000e+00   0.00000000e+00
C  27.163670  34.919258  31.150660   0.00000000e+00   0.00000000e+00   0.00000000e+00
C  26.031563  34.289524  32.261837   0.00000000e+00   0.00000000e+00   0.00000000e+00
C  27.517769  35.033730  32.879810   0.00000000e+00   0.00000000e+00   0.00000000e+00
