44
44
C   1.018141 -10.584962 -21.735428
C  -4.791687 -13.869032  41.743031
C  -5.316045   9.205447  -4.571990
C  13.003621   5.594712  -6.930245
C -16.980940  47.720875 -15.952485
C   0.364823 -22.788963   5.097226
C  17.360432 -16.354794  16.795839
C  -5.171237   4.795222 -11.730958
C  54.196247 -35.321999   9.446797
C -29.144831   0.220369  10.183350
C  11.658102   1.680324 -21.446262
C -14.443902   3.733148  -2.831409
C  -8.114345  -7.840328   5.235650
C  -5.023445  -5.198615  -9.535899
C  -6.147680  56.685760  -2.005892
C   4.645172 -11.017260  12.449764
C -14.538923 -20.798382   6.523059
C   2.808979   6.070665  -7.118612
C  14.620649  25.516209 -12.815736
C -18.014523 -14.005246  12.308813
C  -5.063438  -3.960566  -3.912328
C   7.183320  -5.426114   3.472862
C -13.384233   3.773287  -5.091167
C  26.757202 -18.273493 -34.680481
C  -7.178675  16.427467   5.632440
C  -9.043155   0.703052  19.830292
C  -9.579453  -3.277271  39.819782
C  20.116983  -4.224535 -14.979132
C -18.481539  11.606146 -40.243305
C   4.483174   3.475274  29.345844
C  41.610916 -12.830987  11.816044
C -19.297529  13.350367   0.355545
C  36.524757 -25.437845  -0.728430
C  -5.701322 -16.367193   1.081778
C -24.740124  10.771906 -24.415987
C -14.512367  21.003994  24.732622
C  22.167614 -31.823540  -7.690459
C -10.319685   5.453844 -26.823421
C -32.224289  55.959305  21.867977
C   9.019705 -10.059347  -3.464597
C  -3.453039 -20.321243  -5.923462
C  10.493695  18.299629 -14.307027
C   3.652310   0.492103   7.345968
C  -0.085786 -11.164057  14.708712
