220
220
C  -0.117595  -0.728438  -0.734743
C  -0.076644   1.618922   1.298819
C   0.255597  -0.071454  -1.233498
C   0.068687   0.136856  -1.295719
C   1.016463  -8.835627   2.274797
C  12.678883   1.039339  -9.626225
C  -0.512278   0.525495   2.783461
C  -2.508836  -5.612524  12.214118
C   0.018771   0.221165   0.063130
C  -0.057028   0.771918  -2.600800
C  -4.412314  -2.807738   8.549755
C   0.754337   0.011345   0.806329
C  -0.914007   2.477969  -2.587469
C  -9.581240   1.607210  10.352386
C   1.367307   6.109835  -4.190191
C   1.447656   7.001357 -11.086538
C   1.123099  -3.557156  -3.740106
C  -0.123419   0.617414   0.144698
C   0.083469  -0.030231  -0.521469
C  -0.497378   0.213671   2.945857
C  -0.432418   0.053145  -1.491259
C   0.957078   0.087018  -1.120921
C   0.020154  -0.826685  -0.516351
C   0.537156   1.901067   0.741890
C   0.481612  -0.765028  -0.929412
C   0.274789  -0.620359  -1.050130
C  -4.799130  -6.441394   4.776105
C  12.093973  -8.293276  -4.375854
C  -0.799624   1.957670   1.982807
C  -7.435987   2.207934  11.137511
C   0.082526   0.197097   0.036106
C   0.800707  -0.458967  -2.601238
C  -6.739669   3.422398   6.598757
C   0.344951  -0.358007   1.121844
C   1.286959   1.328022  -3.157347
C  -8.884149  10.005768   5.174039
C   4.886955   3.253107  -5.443142
C   8.590350  -0.212859 -10.585928
C  -0.260967  -5.211398  -1.921500
C   0.224887   0.675529   0.007739
C   0.046659  -0.424418  -0.447263
C  -1.432126   1.859192   2.115199
C  -0.155461  -0.365117  -1.456989
C   0.981223  -1.159432  -0.785284
C  -0.226262  -0.217488  -1.159162
C   0.298110   0.443397   2.184215
C  -1.217429  -0.038037  -0.709593
C  -1.241711  -0.325634  -0.612123
C   6.317621   1.307909  -7.290116
C -11.638577   8.677396  -5.429127
C   1.994190   0.184750   2.059115
C  13.517747   1.135108   1.206942
C  -0.068358  -0.099517   0.237580
C  -2.384679  -0.843559  -0.536518
C   9.603231  -1.643595   2.175840
C   0.525083   1.048508   0.269418
C  -3.179650  -1.693438   1.344602
C  10.722391  -6.166047   7.769042
C  -6.794881   0.764694   3.302504
C -13.158258  -3.005221   0.919829
C  -1.750843  -0.232718  -5.052419
C  -0.113826  -0.066449   0.747449
C  -0.385536  -0.042033  -0.468107
C   2.454063   0.603615   1.217057
C  -1.196289  -0.737874  -0.817829
C  -1.261434   0.796803  -0.834749
C  -0.147285  -0.671812   0.320689
C   0.085899   0.945492  -1.646518
C  -0.198597  -1.286097   0.015803
C  -0.506301  -1.243720   0.178388
C   3.369964   2.157897   8.239451
C   6.187288 -13.449486  -0.407032
C   0.258323   2.738553  -0.855671
C   3.319965  12.657878   4.639279
C  -0.111000   0.108042  -0.288245
C  -0.938969  -2.427089  -0.346390
C  -0.346155   9.753915   2.511446
C   1.161249   0.290291   0.070963
C  -2.197328  -2.132813  -2.240540
C  -5.041699  13.443415  -0.970124
C  -0.569160  -4.936369  -5.212938
C  -3.649570 -11.379853  -6.369033
C   0.210475  -3.493857   3.435382
C  -0.166362   0.076038  -0.528450
C   0.000656  -0.513859   0.142951
C   0.615389   2.514504  -0.129887
C  -0.974249  -1.403472   0.251428
C   0.771423  -1.622236   0.283984
C  -0.769188   0.021194  -0.354487
C   1.892926  -0.190808   0.927783
C  -1.247367  -0.286820   0.552092
C  -1.169541  -0.631981   0.346725
C  -1.490972   5.061945  -6.839076
C -11.523180   5.174141   9.410304
C   2.985717   0.503806  -0.599481
C   9.089804   5.333913  -7.589942
C   0.161276  -0.140016   0.069733
C  -1.964810  -1.508897   1.119503
C   7.608784   1.488714  -6.512642
C   0.543477   0.825252   0.521694
C  -1.137356  -2.936405   2.059682
C  12.238529  -4.067091  -5.810648
C  -0.603948  -3.406600   7.295574
C  -6.837284  -8.044758   8.807191
C  -5.302833   0.831417  -1.768343
C   0.511170  -0.387058   0.540678
C  -0.573829  -0.012737   0.128728
C   2.882280   1.034434  -0.803555
C  -1.402391  -0.876652   0.030977
C  -1.463109   0.361880   0.771469
C   0.515640  -0.283368   0.624452
C  -1.232708   1.130922  -1.168403
C   0.204401   0.215454   1.306701
C   0.465205   0.389913   1.213812
C   3.198113  -8.359597  -1.788606
C  -4.902164  -3.438919  13.320714
C  -0.918133   0.252699  -2.766197
C   0.453153  -6.140835 -12.285223
C  -0.136381   0.201168  -0.105955
C   0.491150   1.021542   2.518950
C   1.776788  -2.020833  -9.736414
C  -0.792358  -0.729973  -0.370971
C   0.155035   3.154477   1.916957
C   2.735204   3.781548 -13.557376
C  -3.299607   4.577109   4.623163
C  -2.824361   7.600072  10.961039
C   2.387546  -2.527055   3.694164
C  -0.311562   0.459549  -0.147598
C   0.183655  -0.059004   0.527684
C  -0.689488  -0.317277  -2.703019
C   1.051264   0.425157   1.336802
C  -0.176497  -0.363695   1.628679
C   0.606533  -0.996720  -0.449822
C  -1.650671   1.767724   0.419319
C   0.609381  -0.468137  -1.143723
C   0.214371  -0.602752  -1.170259
C   6.944094  -3.940784   6.214584
C   9.205961   5.199143 -11.914098
C  -1.676449   1.392420   1.817814
C  -0.025052   0.826564  13.919267
C  -0.247885   0.178113  -0.098499
C   0.089510  -1.018759  -2.314162
C  -2.610145  -0.567186   9.432833
C   0.762952   0.620963   0.922422
C  -2.011805  -0.455008  -2.977208
C  -9.357720  -1.097314  11.314513
C  -2.180313   1.795121  -6.061678
C  -1.434951   0.480064 -13.578445
C   3.775124  -2.549814  -2.039242
C  -0.463665   0.248965  -0.028318
C   0.343357  -0.186110  -0.448801
C  -0.839072   0.727491   2.283362
C   0.091352  -0.982002  -1.459831
C   1.153243  -0.005358  -1.349875
C   0.554832   0.145125  -0.450435
C  -1.387106   0.069300   1.045996
C   0.127119   0.555179  -1.137557
C   0.211694   0.319878  -1.287208
C   7.589753  -1.167543   2.978124
C   3.542105  12.808399  -7.119235
C  -0.561217  -1.179339   2.763777
C   3.295759  -5.620329  11.731210
C  -0.134828  -0.099641   0.013189
C  -0.530357   0.822382  -2.654067
C   0.981433  -6.613588   7.898369
C   0.333730   0.603776   0.814442
C  -2.521835   0.318219  -2.825748
C  -4.949652 -10.220560   8.256134
C  -5.296182   3.947415  -4.217318
C  -4.470361   5.122796 -10.857133
C   4.179863   0.643609  -3.227498
C  -0.640241   0.102961   0.026742
C   0.216680   0.206904  -0.509960
C  -0.709018  -0.712917   2.915981
C   0.159253  -0.045442  -1.563853
C   0.408208   1.052530  -0.926305
C   0.067277  -0.009670  -0.906781
C   0.121264   0.159610   2.053115
C   0.434480   0.982171  -0.853076
C   0.036750   0.993799  -0.888417
C   0.757201  -8.070823  -4.816350
C  10.131680   6.566589  -8.023252
C  -0.395204  -1.457989   2.464579
C  -2.199119 -12.638622   4.972777
C  -0.028834   0.059122   0.256217
C  -0.021645   2.282204  -1.459612
C  -4.022874  -8.021481   4.422630
C   0.783224  -0.829175   0.089533
C  -0.879460   3.568753  -0.116772
C  -8.849480  -6.389150   9.287465
C   1.168852   6.915118   1.018858
C   1.174705  13.317668  -2.523793
C   0.716493   0.213526  -5.046806
C  -0.046891   0.273929   0.596252
C   0.135964   0.261869  -0.387741
C  -0.539620  -1.856536   1.940895
C  -0.537896   1.062634  -0.983367
C   1.203688   0.850104  -1.233929
C   0.460418  -0.157524  -1.427518
C  -0.931930   0.014068   2.051418
C   1.144664  -0.641020  -0.598165
C   1.151794  -0.497714  -0.524498
C  -4.774891   1.702983  -8.631152
C   6.180165 -10.931395  -4.725706
C  -2.126453   1.054268   1.506913
C -11.899403   6.422012  -1.667555
C   0.012611  -0.077712   0.292578
C   2.512420  -0.671331  -0.090591
C  -7.378284   6.579824   0.218916
C  -1.056745  -0.488056  -0.236088
C   3.077910  -0.067243   1.898881
C  -7.037494  11.355326   5.540880
C   4.631375  -3.138039   4.729075
C  11.296063  -6.762429   3.741305
C   2.552608  -1.305731  -4.435029
C  -0.034727   0.017928   0.733609
C   0.456885  -0.182958  -0.252169
C  -2.417915   1.330369   0.763426
C   1.607676  -0.051496  -0.412975
C   0.996168  -1.160868  -0.654831
