44
44
C   0.709185 -10.836450 -21.563074
C  -4.692766 -13.725657  41.621510
C  -5.431835   8.982849  -4.394062
C  12.895310   5.426345  -7.001908
C -17.788483  47.510246 -15.580001
C   0.117313 -23.030006   4.884955
C  17.528124 -16.342562  16.764309
C  -5.240529   4.717237 -11.709545
C  54.251816 -35.373447   9.388391
C -29.311508   0.337430  10.287018
C  11.771256   1.681760 -21.410326
C -14.509741   3.690398  -2.803144
C  -8.297272  -7.841315   5.267936
C  -4.991784  -5.151211  -9.539969
C  -6.216410  56.665073  -1.973770
C   4.689756 -11.194340  12.490965
C -14.440268 -20.899002   6.418555
C   2.749218   6.113955  -7.062200
C  14.651901  25.479429 -12.840137
C -18.008762 -14.032971  12.319761
C  -5.071336  -3.924980  -3.906964
C   7.254605  -5.446435   3.532390
C -13.340878   3.766859  -5.173242
C  26.778288 -18.309566 -34.732803
C  -7.209355  16.446480   5.625312
C  -9.032316   0.730377  19.809187
C  -9.596464  -3.321824  39.836510
C  20.066669  -4.457856 -15.099030
C -18.417219  11.590594 -40.291409
C   4.497293   3.465204  29.342400
C  41.625286 -12.861650  11.781223
C -19.338955  13.430193   0.377141
C  36.560150 -25.423960  -0.739854
C  -5.697947 -16.386909   1.048705
C -24.700083  10.840952 -24.365625
C -14.658279  21.129356  24.874649
C  22.112843 -31.742104  -7.763493
C -10.177866   5.249739 -26.769413
C -32.134384  55.912994  21.833263
C   8.986230 -10.056610  -3.462667
C  -3.427949 -20.373816  -5.907022
C  10.320743  18.265236 -14.213697
C   3.639280   0.479902   7.345933
C  -0.079628 -11.191053  14.746168
