44
44
C   0.539828  -0.757291   0.500111
C   0.694953   2.971903  -0.214952
C   0.404644  -0.939371   0.163636
C   0.834225  -1.462768   1.057269
C  -5.824511  -0.506362  -0.041439
C  -0.837519   1.936624   2.150007
C   1.932024   9.218532   2.480532
C  -9.150089   0.367561   0.088834
C  -0.156215  -0.192879  -0.077515
C  -1.105756  -0.009235  -1.562997
C  -2.358178   1.166157  -0.212138
C   0.003760   0.109864   0.815789
C  -0.669459   1.046610   0.059031
C  -0.038449   1.002933  -0.003250
C   9.795156  -5.146619   2.112419
C   0.402273  -5.225057   3.916281
C  -1.695590  -6.157001  -2.457873
C   2.177797  -0.436874  -1.914952
C  -0.391640  -0.831388  -0.309548
C   0.177797   0.058960  -2.107307
C  -0.491691  -0.383464  -1.388793
C  -0.064561  -1.716895  -0.994362
C   0.231403   0.149119   1.209976
C   1.369402   0.202590  -3.416134
C   0.570606  -0.171897   0.996789
C   0.447456  -0.681595   1.260392
C  -7.797699   7.091980   3.295449
C   6.144949   2.925993  -3.474953
C   1.278389   0.849626  -2.542406
C  -8.112769  10.995021  -5.559250
C   0.065356   0.146925  -0.279854
C   0.686763  -0.197311   0.705784
C  -2.931960   2.402021  -1.741480
C   0.233152   1.153318  -0.881646
C   0.152460  -1.277812   0.710038
C  -0.229595   0.789270  -0.542360
C   6.248590  -3.458932  -3.331639
C   3.746414 -10.241915   2.997932
C  -0.383795  -1.884517   5.163470
C   1.095602   0.561673  -0.331854
C  -0.049706  -0.240535   0.658286
C   2.122357  -0.035229   0.731676
C   1.014214  -1.599538   0.955206
C   0.663366  -0.437947   1.232851
