44
44
C   0.882351 -10.753571 -21.623972
C  -4.716387 -13.765633  41.699966
C  -5.411544   9.108932  -4.411514
C  12.968051   5.484418  -6.917432
C -17.504738  47.591805 -15.846881
C   0.297570 -22.844658   5.006202
C  17.536980 -16.239452  16.851105
C  -5.163382   4.823187 -11.744566
C  54.249477 -35.328415   9.448128
C -29.276188   0.162640  10.205739
C  11.729367   1.724982 -21.417303
C -14.347164   3.571295  -2.854820
C  -8.140035  -7.843031   5.157638
C  -5.022944  -5.150520  -9.607317
C  -6.235623  56.834229  -1.936119
C   4.788692 -11.132879  12.324781
C -14.368279 -20.920473   6.472984
C   2.746552   6.125422  -7.111917
C  14.669911  25.502825 -12.821046
C -18.112329 -13.974964  12.351672
C  -5.127639  -3.949828  -3.920104
C   7.123648  -5.392385   3.394807
C -13.343424   3.663954  -5.205848
C  26.804037 -18.278625 -34.706039
C  -7.276811  16.402058   5.566540
C  -9.110415   0.724937  19.813635
C  -9.618896  -3.162900  39.962051
C  20.136738  -3.743815 -14.535932
C -18.356495  11.516468 -40.220257
C   4.327037   3.639172  29.355774
C  41.647133 -12.849404  11.753141
C -19.362928  13.458133   0.349535
C  36.585838 -25.499901  -0.775216
C  -5.753448 -16.305416   1.120585
C -24.778044  10.775890 -24.423601
C -14.732367  21.030493  24.766747
C  21.972054 -31.662268  -7.401324
C  -9.693733   5.139116 -27.527981
C -32.124966  55.887146  21.686407
C   8.966166 -10.034536  -3.436052
C  -3.468868 -20.343578  -5.945417
C  10.493304  18.315302 -14.186252
C   3.618421   0.470731   7.405981
C  -0.160318 -11.142014  14.724073
