44
44
C   1.030294 -10.614381 -21.737543
C  -4.812824 -13.863497  41.734108
C  -5.261617   9.182524  -4.525763
C  13.028254   5.597960  -6.942096
C -17.036877  47.674980 -15.854302
C   0.102249 -22.898975   5.005661
C  17.348671 -16.329493  16.775585
C  -5.186024   4.768287 -11.732375
C  54.199921 -35.315720   9.424827
C -29.238752   0.186746  10.259413
C  11.649657   1.711187 -21.446308
C -14.387829   3.652411  -2.883256
C  -8.249714  -7.864870   5.242673
C  -5.007681  -5.295916  -9.555515
C  -6.093886  56.580418  -1.895386
C   4.701396 -11.227129  12.592257
C -14.529964 -20.800121   6.449109
C   2.810221   6.068452  -7.105358
C  14.647946  25.505028 -12.834957
C -18.053371 -14.013750  12.345679
C  -5.083512  -3.978720  -3.901559
C   7.192046  -5.457266   3.527338
C -13.417856   3.782418  -5.140431
C  26.760874 -18.265059 -34.675781
C  -7.218934  16.422091   5.612307
C  -9.063117   0.719273  19.826813
C  -9.597903  -3.331802  39.809986
C  20.100166  -4.338838 -15.056952
C -18.448000  11.598228 -40.257938
C   4.450642   3.532468  29.366188
C  41.634998 -12.822796  11.789976
C -19.293375  13.335478   0.358093
C  36.527122 -25.442577  -0.751860
C  -5.668591 -16.344511   1.058266
C -24.699121  10.785460 -24.438013
C -14.483883  20.961948  24.739595
C  22.122763 -31.738396  -7.547562
C -10.212377   5.371788 -26.851021
C -32.138870  55.924095  21.807249
C   8.980855 -10.056961  -3.473666
C  -3.477643 -20.357182  -5.910505
C  10.459321  18.293518 -14.243675
C   3.591007   0.460809   7.401737
C  -0.199140 -11.165712  14.684858
