1100
1100
C  -0.650372   0.282869   0.601085
C   1.093645  -1.352246  -0.957245
C  -0.293523   0.275380   1.336215
C  -0.317329  -0.160849   1.180669
C  -2.010069   8.334240  -2.909842
C   6.895349   4.051430  13.511007
C   0.770511  -0.597158  -2.716776
C   0.349826   4.724885 -13.038105
C   0.125427  -0.181107  -0.063614
C  -0.772289  -0.596010   2.394949
C  -1.461542   1.104464  -9.906958
C   0.773327   0.614711  -0.513473
C  -0.906533  -2.823849   2.216166
C  -3.494262  -4.845243 -12.864775
C   1.310529  -4.859419   5.085843
C   0.285494  -6.349555  11.566925
C  -1.678108   3.378295   3.372238
C   0.147592  -0.564674  -0.143295
C  -0.164715   0.116167   0.527267
C   0.486994  -0.122131  -2.717840
C  -0.942169  -0.311212   1.255449
C   0.336929   0.510870   1.612694
C   0.038384  -0.855710  -0.302184
C  -0.847036   2.334349   0.344796
C  -0.087545  -1.235190   0.694961
C   0.543808  -1.624736   0.681255
C  -3.413079  -0.133382  -6.327026
C -11.230329  -6.899547   6.871046
C  -0.005476   3.336301  -1.326551
C   0.351550  11.008788  -6.984370
C   0.242457   0.042360   0.244189
C   0.221787  -2.592728   1.178357
C   2.631032   8.046343  -6.325452
C  -0.699998   0.793468   0.306653
C   2.099020  -2.338814   2.202214
C   9.705569   9.226515  -4.942638
C   1.684351  -3.170581   7.519693
C   1.815032 -10.678627   7.035301
C  -2.805424  -3.836659  -2.417760
C   0.437797   0.090805   0.773820
C  -0.115682  -0.558606  -0.117559
C   0.592141   2.641994  -0.539742
C   0.156962  -1.631036   0.162202
C  -1.023213  -1.279167   0.777226
C   0.515192   1.080852   0.031123
C  -1.247625  -1.813443  -0.016080
C   0.109876   1.271301   0.782488
C  -0.131352   1.188097   0.656095
C   8.504211   0.488745  -3.453291
C   3.231679   4.758199  15.013012
C  -0.424344  -2.511482  -1.635224
C   5.410028  -8.523705  -8.808121
C  -0.183940  -0.082291   0.006279
C  -1.148801   2.187910   1.174518
C   1.977058  -5.598582  -8.049897
C   0.725492  -0.863297   0.509596
C  -2.984353   1.819737   1.154510
C  -4.152484  -7.033395 -11.635179
C  -6.043819   1.475457   4.427877
C  -7.879724   7.584288   8.012399
C   3.189868   4.232599   1.374834
C  -0.605516  -0.264890  -0.000763
C   0.089572   0.493113   0.259093
C   0.074886  -2.495538  -1.801196
C  -0.381344   1.479399   0.170494
C   0.406072   0.844617   1.334266
C   0.085274   0.546178  -0.513553
C   0.373045  -1.474468   0.844278
C   0.710050   0.485500  -1.085213
C   0.781451   0.581467  -0.813604
C  -7.998776   3.076257  -0.586806
C   2.220647   0.526720 -14.689569
C  -1.123830  -1.648885   2.194422
C -10.439845  -2.801795   8.212444
C   0.090835  -0.098879   0.208620
C   2.004276   1.091248  -1.527779
C  -5.945346  -1.139739   8.177252
C  -0.714562  -0.761837  -0.366424
C   3.671985   0.458293  -0.466919
C  -2.158759  -2.333651  13.875445
C   6.506459  -2.244622  -3.040558
C  11.015638   1.235185  -7.505315
C  -0.963405   3.877222  -3.378387
C   0.434212  -0.410878   0.257175
C   0.155194   0.338503  -0.463651
C  -1.412764  -1.546571   1.896758
C   1.002334   1.141611  -0.634521
C   0.280667   0.277779  -1.673277
C   0.412211   0.184427  -0.713860
C  -0.387166   0.042065   1.968657
C   0.754074   0.852573  -0.719791
C   0.539888   0.851473  -0.816427
C   0.582850  -7.430539  -5.416033
C  14.096653   5.636798  -2.992340
C  -1.325568  -1.667996   1.926122
C  -5.742698 -12.283625   2.281470
C  -0.020610   0.081831   0.161749
C   0.737193   2.271433  -1.103245
C  -6.624211  -7.391491   2.032247
C   0.485759  -1.052064   0.279523
C  -0.293794   3.666879   0.512657
C -11.974541  -4.968381   5.840586
C   2.646332   6.194670   2.061086
C   4.666502  12.715678   0.365864
C   2.015406   0.514693  -4.378088
C  -0.036859   0.263346   0.320122
C   0.235865   0.326130  -0.298045
C  -1.216434  -1.874533   1.370009
C   0.112797   1.305590  -1.015843
C   1.520143   0.655930  -0.722185
C   0.234440  -0.188736  -1.205633
C  -0.533599   0.246175   2.073109
C   0.257125   1.032814  -1.236944
C   0.059417   0.963321  -1.038401
C   4.026780  -7.275890  -3.297393
C  10.819235   9.624537  -5.603080
C  -0.828005  -1.625667   2.540715
C   0.055076 -11.568017   6.056582
C  -0.001411   0.098247   0.082937
C  -0.602017   2.063726  -1.555809
C  -2.480098  -8.711623   4.412128
C   1.033142  -0.424428   0.710636
C  -1.861008   3.039239  -0.584829
C  -8.753115  -8.027444   7.828680
C  -1.903346   7.817505   1.006471
C  -0.855979  12.484181  -4.905378
C   2.342462  -0.046132  -5.176000
C  -0.310995   0.384092   0.569131
C   0.083626   0.408435  -0.582051
C  -0.541114  -1.923599   2.205775
C  -0.461508   0.902960  -1.134931
C   1.108404   1.124038  -0.953464
C  -0.201371  -0.080341   1.033198
C   0.701769  -0.071943  -2.183645
C   0.719366  -0.224754   1.042512
C   0.649349  -0.540616   0.992144
C  -7.744625   4.345751   3.581345
C  10.564153   5.642603   9.118102
C  -0.936976   0.105055  -2.626099
C -11.054917   4.234713  -7.062661
C   0.183246  -0.056205  -0.211559
C   1.406639  -1.239765   1.695173
C  -8.015151   0.308610  -5.912220
C  -0.228677   1.257570  -0.329594
C   2.467519  -2.538067   0.370030
C  -8.268865  -4.779084 -10.575645
C   6.676173  -2.422958   0.075121
C  11.736524  -4.847794   5.074915
C  -0.218375   0.608875   5.079306
C   0.280257  -0.218131  -0.448629
C   0.247610  -0.089737   0.468310
C  -1.508880   0.489808  -2.279113
C   0.574106  -0.986723   1.164164
C   0.970697   0.367657   1.254441
C   0.687785   0.060188   0.047032
C  -1.879958  -0.285544  -0.866339
C   1.243633   0.002093  -0.559798
C   1.250742  -0.163793  -0.556361
C   1.400773   4.520905   7.598249
C   9.485168   8.586284  -8.179733
C  -2.899666  -0.176515   0.771091
C  -9.315948   2.410214   9.367884
C  -0.139158  -0.121777  -0.155228
C   2.229489  -0.655054  -1.083261
C  -7.173366  -1.074173   6.986654
C  -0.750278   0.974132  -0.209899
C   1.237106  -2.460348  -2.408861
C -10.832836  -6.962054   6.427228
C   1.360774  -1.443185  -7.219153
C   7.484532  -4.795404 -10.440922
C   4.982643   1.409685   1.286428
C  -0.410921  -0.290999  -0.496060
C   0.481174   0.098164  -0.143499
C  -2.725923  -0.019169   1.143348
C   1.382793  -0.681647  -0.285029
C   1.218313   0.718242  -0.625844
C  -0.520014   0.756624  -0.237161
C   1.214879  -1.476714   0.568475
C   0.183959   1.295224   0.141971
C   0.110291   1.314293   0.260725
C  -5.836826  -0.526589  -6.773019
C   6.862898  12.115324  -5.363575
C   0.051022  -2.971048  -0.146400
C  -5.250559 -11.366419  -5.432345
C   0.127315  -0.133705   0.099097
C   0.321800   2.445169   1.227634
C  -4.646206  -8.868175  -1.295418
C   0.315373  -0.515660  -1.193980
C   1.134991   1.728709   3.043184
C  -4.136391 -12.678149   4.516145
C   5.203180   3.346183   4.015281
C   7.165758   9.665099   6.785649
C  -2.174854   4.340637  -1.740946
C   0.501845  -0.206872   0.345614
C  -0.093019   0.503958   0.054437
C  -0.239629  -2.740129  -0.358970
C  -0.355338   1.396704   0.989215
C   0.523109   1.544675  -0.442014
C  -0.263910  -0.636594   0.009675
C   0.497437   1.759281   0.292393
C  -1.148019  -0.660400   0.166727
C  -1.019340  -0.649888   0.354889
C   4.421763  -4.764192  -5.484550
C -13.106671  -3.286282  -6.217932
C   2.391203   1.764065  -0.153971
C  12.509287   2.455997  -4.378255
C   0.028903   0.146220   0.039932
C  -2.335846  -1.061898   1.233642
C  10.025048   1.794728  -0.585762
C   0.314275   0.444563  -0.928042
C  -2.302772   0.092701   2.877819
C  11.917962   4.861098   5.416543
C  -6.067984   2.390350   3.812720
C -12.198514  -0.648573   4.673153
C  -2.049235  -4.662209  -1.746959
C  -0.037482   0.568053   0.436237
C  -0.370931  -0.444665  -0.014592
C   2.562441   1.499977  -0.155751
C  -0.827148  -0.973170   0.777994
C  -1.443218  -0.758983  -0.551542
C  -0.385973  -0.741584   0.732395
C   0.571155   1.401956  -1.543236
C   0.544650  -0.821224   0.535903
C   0.476215  -0.985355   0.566966
C  -7.730113   0.731447   5.388855
C   9.910518  -1.307302  11.139675
C  -0.989891   2.020202  -1.715158
C -10.823456   7.777514  -2.304220
C   0.149416  -0.036289  -0.206097
C   1.689430  -2.070186   0.484833
C  -8.157721   4.147499  -4.142995
C  -0.012909   1.200191   0.410448
C   2.511163  -2.225626  -1.388761
C  -8.112082   3.672734 -11.126139
C   7.134636  -1.252834  -1.272124
C  11.709293  -6.835631   0.051938
C  -0.373592  -3.237464   4.098213
C   0.375410   0.194739  -0.489093
C   0.174991  -0.400791   0.326159
C  -1.477421   2.008673  -1.310626
C   0.554729  -1.471701   0.340546
C   0.950046  -0.718936   1.170328
C  -0.153555   0.145010   0.781249
C   0.758963  -0.195655  -1.846351
C   0.437792   0.658295   1.087643
C   0.538262   0.502109   1.044434
C  -8.838221  -0.620878   1.961226
C   1.903337  13.359927   6.241189
C  -0.544800  -1.319365  -2.563112
C  -9.482402  -6.256810  -7.610162
C   0.180354  -0.040572  -0.151042
C   1.599299   0.831486   2.010890
C  -5.088046  -6.863665  -5.344582
C  -0.906440   0.467558  -0.749524
C   3.514129  -0.082806   1.135445
C  -1.101410 -11.816640  -8.039902
C   6.419254   3.167602   0.704277
C  10.840833   5.737880   5.526111
C  -1.701197   1.668902   4.477154
C   0.473612  -0.047463  -0.335656
C   0.145060   0.254141   0.434050
C  -0.902932  -1.259275  -2.210725
C   0.786896   0.026991   1.552524
C   0.253972   1.325727   1.001487
C   0.673494   0.617569  -0.254005
C  -0.881731  -1.685360   0.413742
C   0.827094   0.683787   0.706851
C   0.667992   0.890055   0.646575
C   1.977994   2.535360  -8.450938
C  14.372916   1.275160   5.565144
C  -1.882927  -1.801703  -1.285187
C  -5.955359  -4.145329 -11.462791
C  -0.096672  -0.075032   0.128948
C   1.051683   1.401694   2.131978
C  -6.929917  -2.191455  -7.097728
C   0.449466  -0.671531  -0.910301
C  -0.444006   0.617399   3.555649
C -13.014929  -3.948367  -4.221408
C   1.903979  -1.471386   7.063256
C   4.835542   2.421324  12.500449
C   3.091539   4.120657  -0.597245
C  -0.193456  -0.350798   0.373084
C   0.321442   0.366968   0.268997
C  -1.522565  -2.055496  -1.589300
C   0.367326   1.242256   1.019827
C   1.427009   0.395569   0.670565
C  -0.046379  -0.929834   0.394434
C  -0.253608   1.991832  -0.372611
C  -0.506663  -0.826358   1.096093
C  -0.290969  -0.688285   1.012800
C   2.042495  -6.815152  -6.068097
C -12.024932  -6.946027   5.162960
C   0.880523   1.845176  -2.017174
C   5.792116   1.551826 -12.248130
C  -0.003785   0.215137   0.023377
C  -0.576035  -0.573428   2.545676
C   6.235534   2.490917  -7.501640
C  -0.421470  -0.124627  -1.135548
C  -0.056380   1.220894   3.548829
C  10.096386   8.180564  -6.174966
C  -2.965925   2.898170   5.692611
C  -4.869107   0.759293  12.667633
C  -0.636485  -4.917115   1.471956
C  -0.037312   0.656136   0.106208
C  -0.091964  -0.403719   0.358899
C   0.927472   1.430158  -2.111669
C   0.164732  -0.788068   1.587765
C  -1.188350  -1.112482   0.968801
C   0.082961   0.196844   0.827988
C  -0.011721   0.090923  -1.888429
C   0.325469   1.025623   0.872523
C   0.654298   0.844530   0.861365
C  -5.521025  -5.121842   4.462694
C  -3.381283  13.107126   7.370203
C  -0.864433  -1.604969  -2.364517
C  -6.717152 -10.643070  -4.859773
C   0.060111   0.026545  -0.157262
C   1.596071   1.792046   1.367010
C  -2.355384  -8.896141  -4.275924
C  -1.144202   0.035500  -0.436621
C   3.201427   1.852670  -0.102756
C   2.410862 -10.623248  -8.983006
C   3.545560   6.612198  -1.436619
C   7.241354  10.549994   3.078091
C  -0.385641   0.559453   5.284334
C   0.225619   0.245982  -0.575132
C   0.228556   0.253377   0.502714
C  -1.030379  -1.686676  -2.235895
C   1.068645   0.615689   1.040934
C  -0.104359   1.237693   0.985241
C  -0.319729  -0.684709  -0.423427
C   0.996163   1.302753   1.150452
C  -0.028653  -1.285608  -0.102551
C   0.143459  -1.329406  -0.295705
C  -7.996197   1.991194  -3.028868
C  -4.654447 -12.504206   7.092951
C   0.161973   2.893541   0.531456
C  -5.411494  12.353333  -1.184626
C   0.182024   0.156472   0.118512
C   0.822143  -2.437713  -0.659527
C  -1.795522   9.679906  -2.506661
C  -0.517190   0.437290   0.905091
C   3.083469  -2.031950  -0.220622
C   4.442473  12.845810  -4.036495
C   5.449350  -4.440072   3.850228
C   6.844591 -10.916046   2.801779
C  -3.101267  -3.970601  -2.167179
C   0.625420   0.251048   0.410571
C  -0.079552  -0.539778  -0.024793
C  -0.260092   2.989691   0.672384
C   0.463256  -1.258432  -0.704512
C  -0.403101  -1.531735   0.690388
C  -0.022657  -0.030171  -0.872609
C  -0.151678  -0.100049   1.868467
C  -0.601975  -0.845637  -0.848950
C  -0.208807  -1.027853  -0.864855
C   1.077700   7.482949  -4.431646
C -12.512779  -4.486981  -7.337862
C   0.707290   1.492027   2.312113
C   4.942235  11.765870   4.957064
C  -0.000285  -0.038115   0.198580
C  -0.570148  -2.246008  -1.494676
C   5.988152   6.916583   4.427746
C  -0.467902   0.766554   0.193632
C   0.086441  -3.756493   0.245707
C  10.090929   3.753270   9.252437
C  -3.561483  -6.089214   1.048507
C  -4.510400 -12.159146  -3.506368
C  -0.617787  -0.014949  -5.053916
C  -0.058517  -0.261539   0.499579
C  -0.137744  -0.220932  -0.526444
C   0.722134   1.805799   1.898302
C   0.199336  -1.255354  -1.297678
C  -1.077939  -0.599165  -1.155968
C  -0.408906  -0.863734  -0.377677
C   0.998734   1.456836   1.029845
C  -0.329555  -1.330246   0.379731
C  -0.049104  -1.443091   0.182778
C  -6.482395   1.753986  -6.193107
C  -8.887775  -8.710712   7.731658
C   0.775680   2.923810  -0.298760
C  -1.449136  11.507654  -6.909383
C   0.152981   0.158797   0.179138
C   0.426685  -2.598343   0.882541
C   1.577421   8.106161  -5.836019
C  -0.800669   0.780516  -0.034852
C   2.276891  -2.544256   1.463156
C   8.384596  10.060898  -5.876878
C   3.204250  -3.551394   5.981284
C   4.161160 -10.165347   7.718448
C  -3.193625  -3.862681  -1.718172
C   0.497526   0.225365   0.560601
C  -0.143377  -0.513974   0.007947
C   0.697518   2.789379  -0.618192
C   0.400830  -1.548984  -0.175700
C  -1.055405  -1.296161   0.735946
C   0.799095  -0.160042  -0.000910
C  -1.573076   0.733933   0.337979
C   1.304586   0.428610   0.320077
C   1.233152   0.412551   0.080038
C   1.133217  -8.447919  -0.781184
C  10.562469   1.272453   9.853188
C  -2.882022  -0.809561  -0.435514
C  -9.541015  -9.065517  -2.810717
C  -0.115412   0.114845   0.003631
C   2.181337   1.834419  -0.023068
C  -7.652834  -5.212633  -4.380984
C  -0.582835  -0.699256   0.865256
C   1.094952   3.578089  -0.515133
C -11.894131  -0.771304  -7.746540
C   1.797146   6.938090   2.428621
C   7.542130  10.551746   2.372967
C   4.851156  -2.000589  -0.128453
C  -0.282690   0.500774   0.150168
C   0.604936   0.064922  -0.029750
C  -2.672369  -0.916763  -0.570031
C   1.435867   0.724213  -0.561421
C   1.508998   0.198231   0.812070
C  -0.552780  -0.087676  -0.334272
C   1.137503   0.916970   1.043397
C  -0.951227   0.468199  -0.844354
C  -1.085710   0.271802  -0.394466
C   2.380952  -7.212279  -4.300227
C  -4.267900   7.837376 -12.555677
C   2.362599  -0.540592   1.569769
C  10.209998  -8.460565   3.247346
C   0.120916   0.114695   0.170470
C  -2.412859   1.192754  -0.501908
C   6.268970  -6.306964   4.955576
C   1.058392  -0.133676  -0.556742
C  -2.612556   2.418963   1.323222
C   6.147426  -4.777416  11.764888
C  -3.179128   6.627727   0.621284
C  -8.849813  10.075099  -1.161006
C  -2.952047  -1.770680  -3.752342
C   0.062671   0.457845   0.407230
C  -0.376065   0.060238  -0.351766
C   2.278004  -0.717905   1.481884
C  -1.590406   0.181092  -0.253634
C  -0.850504   0.745736  -1.509390
C  -0.676007   0.100973  -0.795693
C   1.222108  -0.227341   1.608244
C  -0.125788  -0.809345  -1.073387
C  -0.027246  -0.603039  -1.252716
C  -7.584301   5.040505   0.238028
C  -7.560492 -12.531164  -5.036124
C   0.670583   1.186098   2.548274
C  -2.853135   9.634297   8.973792
C   0.159191  -0.010005   0.036740
C   0.489022  -1.412314  -2.313625
C   0.463535   8.295660   5.758343
C  -0.465499  -0.471236   1.099779
C   2.784850  -1.779637  -1.861227
C   7.226432  10.072548   7.119034
C   3.364228  -6.701056  -1.129370
C   4.908816  -9.470757  -8.118711
C  -3.274139  -0.138796  -4.190022
C   0.505386  -0.275422   0.335264
C  -0.158106  -0.217933  -0.534924
C   0.173310   1.418105   2.487710
C   0.226841  -0.391908  -1.723245
C  -0.709112  -1.121151  -0.969409
C   0.092630  -0.034711   0.893775
C  -0.757398  -0.551307  -1.872680
C  -0.379038  -0.470493   1.193462
C  -0.447722  -0.245776   1.151878
C   8.996566   2.449907   2.645713
C  -1.532825 -10.475881  10.232458
C   0.538362   0.445561  -2.709958
C  10.146255   4.987549  -8.277965
C  -0.215314  -0.052208  -0.146796
C  -1.680289  -0.185890   1.891922
C   5.067471   5.469424  -6.740406
C   1.241672  -0.497586  -0.425627
C  -3.542429  -0.127721   0.633387
C   1.204163   8.571490 -11.380656
C  -5.669574  -3.198930   1.592931
C -10.936207  -5.111252   6.260460
C   0.967768  -0.082234   4.617762
C  -0.315309  -0.059773  -0.187129
C  -0.143175  -0.098683   0.447950
C   1.101026   0.767309  -2.104197
C  -0.931788   0.300978   1.375657
C  -0.194443  -0.961110   1.530883
C  -0.788604   0.057934   0.342938
C   1.635456  -0.460735  -0.984808
C  -0.913984  -0.796679   0.814838
C  -1.047363  -0.819899   0.294957
C  -1.880550   8.048069   3.270975
C  -2.926853  -6.154881  12.924275
C   2.132439   1.239933  -1.646823
C   5.880249  11.654723  -3.590466
C   0.196269  -0.112556  -0.089472
C  -1.831323  -1.934563   0.499513
C   3.478527   7.886171  -5.260397
C   0.955872   0.521827   0.553014
C  -1.311304  -3.221641  -1.137616
C   4.723657   6.187910 -11.895225
C   0.585274  -7.522513   0.251167
C  -3.914603 -12.368016   2.695564
C  -4.167557   0.552448   3.326953
C   0.491475  -0.435773  -0.308113
C  -0.381201  -0.240283   0.227694
C   2.066757   1.626861  -1.273442
C  -1.392307  -0.881445   0.037234
C  -0.524584  -0.798374   1.214235
C   0.928620  -0.574875  -0.382259
C  -1.663768   0.570825   0.890934
C   0.570193  -1.257277  -0.368883
C   0.396471  -1.272269  -0.167122
C   5.585683   5.221439  -5.066540
C  -2.164130 -11.006106 -10.024885
C  -1.271859   2.346623   0.882185
C   0.490336  13.850304  -0.374510
C  -0.152960  -0.035914   0.141153
C   0.587164  -2.428986   0.252758
C   0.868259   9.692947   2.646440
C  -0.638901   0.702687  -0.860605
C  -0.508648  -2.981036   2.080470
C  -0.729842  10.564560   9.433345
C  -3.011071  -6.059634   1.446061
C  -1.493725 -13.360468   2.013990
C   3.314610  -2.284998  -2.850296
C  -0.275572  -0.102549   0.295794
C   0.190802  -0.433565  -0.091774
C  -0.759518   2.500424   0.752194
C   0.915451  -1.358727   0.253932
C   0.145962  -1.342907  -1.032840
C   0.382679   0.244823  -0.663204
C  -0.883754  -0.088344   1.905390
C   0.759903   0.773118  -0.702565
C   0.574679   0.857384  -0.683458
C   1.203289  -7.317794  -5.337522
C  13.760073   6.174842  -1.086424
C  -1.762560  -1.579799   1.596101
C  -5.857234 -12.141985   1.406614
C  -0.064423   0.112387   0.199604
C   0.819700   2.496270  -0.738464
C  -6.756337  -7.401387   0.882839
C   0.421502  -1.069184   0.491772
C  -0.443489   3.660828   0.408128
C -12.724771  -5.283412   3.766930
C   1.794026   6.645523   3.307778
C   4.363798  12.938143   0.327714
C   2.857919   0.544937  -4.485610
C  -0.221191   0.281925   0.614018
C   0.281417   0.341060  -0.341944
C  -1.618895  -2.097672   1.455730
C   0.290035   1.253892  -0.944365
C   1.408716   0.760992  -0.572276
C   0.576085   0.687067  -0.076907
C  -1.542805  -1.422269  -0.175932
C   0.097068   1.337796  -0.420054
C   0.159511   1.302412  -0.554834
C   6.128935  -1.129486   6.000042
C  -4.330756  14.099035   5.551667
C  -0.595841  -3.048951   0.720721
C   2.904397 -11.266030   5.895314
C  -0.065933  -0.097565  -0.096930
C  -0.038856   2.412626  -1.478217
C   2.909353  -9.624093   1.857240
C  -0.852128  -0.248860   0.859584
C  -1.212838   1.746929  -3.106845
C   0.916674 -13.588805  -3.712619
C  -6.332754   3.815980  -3.522830
C  -4.598766  10.296297  -6.692495
C   3.716551   4.294815   1.148313
C  -0.709653  -0.301181  -0.333175
C   0.216563   0.625628  -0.089646
C  -0.448480  -2.975863   0.753290
C   0.565779   1.070351  -1.065608
C  -0.166773   1.553253   0.331601
C   0.353652  -0.749201  -0.525798
C  -1.184129   1.373938   1.181838
C   0.160850  -1.320543   0.044922
C   0.369418  -1.320405   0.192970
C   3.060201   1.651024  -8.800896
C  -6.230702 -13.436646  -2.073875
C  -0.728928   2.803347   0.314063
C   0.691770  12.186049  -6.165698
C  -0.020079   0.109556   0.278942
C   0.506396  -2.384312   1.002097
C   2.159432   9.558911  -2.092388
C  -1.023440   0.518584  -0.716949
C   0.346511  -1.907899   2.938184
C   3.700032  13.534410   3.258075
C  -3.089518  -4.123955   4.804130
C  -1.350224 -10.986858   7.744946
C   2.099801  -3.954529  -2.593581
C  -0.210346   0.291056   0.526969
C   0.151950  -0.588585  -0.008158
C  -0.565826   2.613516  -0.370024
C   0.856536  -1.380480   0.530346
C  -0.363071  -1.591795  -0.319921
C  -0.096173   0.149313   1.011330
C   0.246398  -0.423488  -2.069237
C  -0.306443  -0.859294   0.921475
C  -0.505312  -0.754224   0.898727
C   3.732938   7.033031   4.706623
C   4.628839 -11.270247   8.894640
C   0.645986   1.245124  -2.451957
C   5.300376  11.566225  -5.261364
C  -0.117683  -0.117561  -0.123610
C  -1.553042  -1.670979   1.429190
C   1.170311   8.657482  -5.024508
C   1.064901   0.281471  -0.194109
C  -2.766269  -2.411931  -0.377845
C  -3.238420   9.216585 -10.319571
C  -2.242865  -6.653021  -0.328999
C  -5.730564 -11.719917   3.501678
C  -0.023236  -0.172282   4.876331
C  -0.190470  -0.284659  -0.279048
C  -0.105007  -0.258497   0.417787
C   0.783630   1.623252  -1.771072
C  -1.078376  -0.713558   1.135097
C   0.113174  -1.210253   1.288877
C   0.058063  -0.196959  -1.117757
C  -0.559329   0.156432   1.941766
C  -0.513459  -0.761408  -0.944966
C  -0.419057  -0.893790  -0.945357
C   4.538342   6.577920  -4.946674
C -11.740811  -1.539426  -9.638358
C   0.562423   1.449218   2.370419
C   7.493366  10.383001   5.079440
C  -0.066873  -0.112056   0.210030
C  -0.764478  -2.106857  -1.475001
C   6.817188   5.340706   5.061821
C  -0.269417   1.046568   0.259239
C  -0.838601  -3.629050   0.346127
C   9.134047   2.162251  10.920069
C  -5.184301  -4.893135   0.604801
C  -7.136036 -10.733642  -3.434106
C   0.241171  -0.442859  -5.020115
C  -0.260446  -0.255223   0.483100
C  -0.143304  -0.293867  -0.363214
C   0.798319   1.657784   2.090005
C   0.044821  -1.441297  -0.966135
C  -1.018620  -0.456133  -1.242945
C  -0.398332  -0.359742  -1.025904
C   0.944015   0.388875   1.709568
C  -1.139129  -0.479329  -0.310179
C  -1.150479  -0.660601  -0.241022
C   2.458775   3.686773  -7.839447
C -14.771546   3.899113  -1.235381
C   2.465674   0.842540   1.149362
C  11.920334   5.724203  -2.789326
C   0.027677  -0.020096   0.180931
C  -2.299930  -1.560697   0.191270
C   9.862301   1.765864  -1.215169
C   0.193548   1.155635   0.173821
C  -1.741306  -2.725290   1.883425
C  13.609676  -2.398357   3.306088
C  -4.721006  -2.582972   5.134562
C -10.782195  -6.051816   4.486443
C  -3.206955  -0.353195  -4.122468
C   0.122854  -0.189998   0.590211
C  -0.496184  -0.175275  -0.215236
C   2.642705   0.902101   0.566884
C  -0.970589  -1.271386  -0.365528
C  -1.676443   0.093287  -0.369583
C  -0.338845   0.739854   0.716675
C   0.708748  -1.495425  -1.146124
C  -0.618709   0.170441   1.238226
C  -0.602838   0.190798   1.040249
C   2.562700   9.002784  -0.654978
C   2.908090  -2.047989  15.104467
C   1.214309  -0.169254  -2.525677
C   6.247769   6.589993 -10.456766
C  -0.012294  -0.158415  -0.137889
C  -1.744637  -0.667751   1.859400
C   2.243494   3.827807  -9.056282
C   1.131785   0.171639  -0.063133
C  -2.528333  -2.468386   0.892640
C  -0.748852   0.099856 -14.298278
C  -1.856430  -5.966209   3.417310
C  -5.473749  -8.544334   9.048719
C  -1.299716   2.994143   3.846988
C  -0.052548  -0.514641  -0.203099
C  -0.231212   0.030822   0.452985
C   1.507806   0.072408  -2.417511
C  -1.354391   0.094866   1.035876
C  -0.012870  -0.138997   1.695409
C  -0.262863   0.628445   0.078054
C   0.418394  -1.698025  -0.793793
C  -1.092379   0.745780  -0.192691
C  -0.876207   1.024701  -0.484158
C   2.532904   1.814180   8.055852
C -14.546493   3.341447   3.322023
C   1.950387  -2.430616   0.243406
C   9.665227  -6.357220   6.460955
C   0.074844  -0.069035  -0.151443
C  -1.814322   1.727966  -1.253099
C   9.029808  -3.945772   2.566317
C  -0.212432  -0.978577   0.716518
C  -1.323154   1.147487  -3.155318
C  12.540356  -5.762940  -3.159609
C  -5.268562  -0.593204  -5.629298
C  -8.606387   5.964679  -9.423282
C  -1.792875   4.470636   2.467054
C  -0.014297  -0.383884  -0.510254
C  -0.348515   0.461455   0.012408
C   2.075071  -2.151626   0.466230
C  -0.461865   1.423608  -0.716995
C  -1.437586   0.746673   0.271075
C  -1.290821   0.190431  -0.677616
C   2.026330  -0.213030   1.158484
C  -1.191389   0.704675   0.236292
C  -1.266529   0.550478   0.364842
C  -1.043141  -0.987881  -9.640876
C  -6.094479  13.825907   0.203576
C   2.681650  -1.191103  -0.017288
C   8.465772  -6.446545  -8.356449
C   0.125038   0.053570   0.222870
C  -2.137624   0.802045   1.372000
C   5.753489  -6.813087  -4.321979
C   0.915015   0.586916  -0.490027
C  -1.576681   0.145028   3.325308
C   8.115149 -11.960725   0.056469
C  -0.982818   3.472448   6.589263
C  -6.804438   5.469729  10.608863
C  -4.461185   1.683741  -2.290538
C   0.313890  -0.026192   0.569119
C  -0.515636   0.300046   0.086255
C   2.582351  -1.482591  -0.626207
C  -1.598855   0.080431   0.515273
C  -1.208298   1.386261   0.026162
C  -0.122405   0.742634   0.712737
C   0.699926  -1.248072  -1.487718
C   0.324709   0.289076   1.250215
C   0.131417   0.234513   1.473596
C  -4.001947   7.641992  -2.190005
C   9.135847   6.965676   9.175831
C  -0.432811  -0.650761  -3.033003
C  -5.634633   2.413471 -11.594572
C  -0.019540  -0.187402  -0.030049
C   0.719541  -0.504205   2.757641
C  -5.928646  -0.450296  -8.166910
C   0.522300   0.597743  -0.935103
C   0.924038  -2.492906   2.502369
C  -7.138692  -7.211937 -10.074120
C   5.857619  -4.543593   3.619667
C   5.763882  -3.869196  11.473618
C  -1.377113   3.826504   4.081382
C   0.457074  -0.685871  -0.234366
C  -0.023343   0.184777   0.606778
C  -0.609606  -0.575105  -3.081092
C  -0.203313  -0.330580   1.474188
C   0.683188   0.616133   1.129669
C   0.053211  -0.059985   1.339218
C  -0.051129  -0.197136  -2.231502
C  -0.971991  -0.131380   1.038098
C  -1.067429   0.005750   1.022983
C   7.855392  -1.275672   4.825062
C  -7.798388 -10.714255   7.917951
C   1.698288   0.065408  -2.655000
C  11.995804   0.591131  -5.010207
C  -0.080361   0.111015  -0.079126
C  -2.401100   0.397188   1.429814
C   8.613464   3.150355  -4.327907
C   0.707343  -0.883950  -0.409025
C  -3.466371   1.499407   0.009469
C   7.446312   7.954021  -9.527380
C  -7.619693  -0.922174  -2.025785
C -12.686074  -0.074758   4.339085
C  -0.110899  -0.473363   5.757462
C  -0.386837   0.002492  -0.794373
C  -0.372857   0.001599   0.709946
C   2.034397   0.075029  -2.136902
C  -1.054230   0.669102   1.055902
C  -0.951953  -0.907869   1.103259
C   0.220833   0.517716   0.319156
C  -1.317235  -1.322989  -0.511720
C  -0.032111   0.926234   0.895919
C  -0.140101   0.951455   0.833995
C   8.267943  -1.286033  -1.300003
C   2.174000   2.135495  14.506478
C  -0.286686  -2.205100  -2.012639
C   5.300646  -8.438869  -9.043091
C  -0.138055  -0.062132  -0.008122
C  -0.688104   2.150999   1.481267
C   2.411967  -4.687513  -8.730906
C   0.453259  -1.135823  -0.075259
C  -2.613747   2.314119   0.642657
C  -2.909343  -4.088867 -13.184587
C  -5.934206   1.877198   4.218055
C  -7.308033   7.683166   8.326201
C   3.451344   3.103461   2.397079
C  -0.543001  -0.109861  -0.021469
C   0.066207   0.434998   0.294296
C  -0.184068  -2.164113  -2.097859
C  -0.066156   1.443188   0.508180
C   0.247551   0.747281   1.509583
C   0.851355  -0.172318  -0.890791
C  -1.920128   0.416744   1.083178
C   0.090316  -0.882100  -1.156750
C   0.365071  -0.894275  -1.035453
C   7.841207   5.723681  -0.815892
C  -1.826836  -2.242156 -14.534613
C  -1.025567   1.564419   2.271024
C   3.511550  10.119450   8.496488
C  -0.215638  -0.037174   0.073184
C   0.067400  -2.237667  -1.434418
C   2.270480   5.292681   8.181946
C  -0.101957   1.247240  -0.218493
C  -1.528163  -3.268988  -0.460240
C  -0.774420   2.739418  14.076173
C  -4.806743  -4.142847  -2.815926
C  -4.782726 -10.599532  -6.840947
C   3.565041  -1.282271  -3.469659
C  -0.559152  -0.056282   0.220577
C   0.183622  -0.371250  -0.465991
C  -0.528815   1.797940   1.971364
C   0.473744  -1.414066  -0.743698
C   0.083030  -0.474540  -1.677351
C  -0.712554  -0.421000   0.136868
C   1.818060   0.833290   0.093382
C  -0.723977  -0.724058   0.934832
C  -0.567388  -0.856370   0.858775
C  -6.591093   3.191459  -5.194713
C  -9.068319   0.042705  10.842649
C   1.977370   1.638091  -1.592815
C   1.839032   8.261201 -10.542032
C   0.230269  -0.015471   0.029234
C  -0.714772  -2.020896   1.598144
C   3.047116   3.979601  -8.694843
C  -0.198298   1.197629  -0.039500
C   1.204766  -2.759791   1.933977
C   9.196412   1.565833 -10.860343
C   2.613896  -2.802382   6.216588
C   0.480563  -7.808553  10.910243
C  -4.999189  -1.773301   0.592147
C   0.665594   0.033837   0.213276
C  -0.417118  -0.326255   0.291279
C   1.456366   1.883275  -1.659784
C  -0.683991  -1.507924   0.505614
C  -1.015643  -0.365181   1.186480
C   0.159167  -0.390226  -0.671027
C  -0.461199   0.257918   1.817359
C   0.579283  -1.055903  -0.562442
C   0.719621  -0.897266  -0.608356
C  -4.191473   3.935451  -6.905610
C  -2.012192 -14.490305  -4.925679
C  -1.276029   1.972045   1.667129
C  -7.515595  11.309092   0.508472
C   0.052751  -0.005152   0.184521
C   1.863599  -1.996331  -0.432187
C  -3.158929   9.416163   1.556895
C  -1.261944   0.208236  -0.058284
C   2.911877  -1.743776   1.536456
C  -0.090583  12.466910   7.056242
C   3.025060  -6.016676   3.729231
C   8.058291 -10.555351   1.376245
C   0.969998  -1.731948  -4.991355
C   0.081132  -0.068696   0.650123
C   0.237057  -0.321447  -0.290861
C  -1.538230   2.241099   1.573890
C   1.201293  -0.706392  -0.484871
C   0.148689  -1.394595  -0.658091
C   0.144058  -0.049833  -0.888123
C  -0.848704  -0.398849   1.955858
C  -0.220587  -0.608753  -1.233693
C   0.120218  -0.656054  -1.162811
C   3.188258   8.375343  -2.591504
C  -8.995067  -1.784516 -12.036963
C  -0.054463   0.882749   2.718473
C   3.387120  10.335621   8.325844
C  -0.152064  -0.227328   0.212644
C   0.108672  -1.883756  -1.864475
C   4.166254   5.475482   7.348541
C  -0.703484   0.851475   0.399337
C  -0.039297  -3.696755  -0.446601
C   6.156246   1.753885  13.030952
C  -4.496359  -5.883635  -1.293300
C  -4.996259 -11.432487  -6.099556
C   1.472856   0.650462  -4.938521
C  -0.341322  -0.437560   0.420608
C   0.058252  -0.224712  -0.484750
C   0.018757   1.484971   2.394643
C   0.467348  -1.140246  -1.188609
C  -0.674170  -0.362045  -1.497236
C  -0.065413   0.224343  -1.138190
C   0.326640  -0.224157   2.152676
C   0.802329  -0.301026  -1.025085
C   0.932702   0.059280  -0.945350
C  -8.361714   0.110520  -4.532693
C   6.885012 -11.134253  -8.359169
C  -1.317099   0.335445   2.559355
C -12.137478   2.201589   5.641650
C   0.093557  -0.045266   0.190786
C   2.123341   0.277258  -1.540110
C  -7.703909   4.036736   4.924535
C  -0.773162  -0.657643   0.299766
C   3.626930   0.958108  -0.046046
C  -5.429041   8.759553  10.004017
C   7.218614  -1.607196   0.970719
C  12.920357  -1.336486  -3.115800
C  -0.095900  -0.597098  -5.324391
C   0.380691   0.068107   0.634829
C   0.315163  -0.151287  -0.645902
C  -1.838966   0.448570   2.156517
C   1.108625   0.624620  -1.204316
C   0.828523  -0.806199  -1.181245
C   0.038811  -0.148916  -0.966702
C   0.596647   0.998451   1.494551
C   0.316962   0.268916  -1.294290
C   0.043314   0.362528  -1.254429
C  -1.898371  -9.049720  -0.712619
C  10.978267  -0.436827 -10.920637
C  -0.328614  -0.256322   2.823684
C  -4.099597  -8.665271  10.104877
C   0.090196   0.185062   0.102961
C   0.311383   1.539743  -2.253286
C  -4.889722  -4.109489   7.906499
C   0.424159  -1.034329   0.526920
C  -0.088278   3.520427  -1.386496
C  -7.698646   0.517562  12.016534
C   2.825796   6.140227  -2.720765
C   3.901712  10.695985  -7.757165
C  -0.233324  -1.949791  -4.416384
C   0.083514   0.441224   0.165934
C   0.037940   0.108141  -0.435965
C  -0.552839  -0.664547   2.604834
C  -0.464989   0.781621  -1.421233
C   0.828112   0.083026  -1.440081
C  -0.156182   0.699683  -0.498684
C   0.516959  -1.160931   1.387076
C   0.735497   0.337181  -0.897679
C   0.955025   0.693849  -0.744163
C  -7.999304   0.957006  -3.147484
C   5.334823  -2.936638 -13.160297
C  -1.374772  -1.181543   2.239021
C -11.902473  -2.708936   6.322632
C   0.137910  -0.096650   0.189624
C   2.352721   1.057590  -1.298570
C  -7.662463  -0.285340   6.697986
C  -0.778815  -0.860046  -0.197317
C   3.426026   1.218513   0.349828
C  -5.298075   0.997788  12.909077
C   7.278873  -0.556748  -0.671464
C  12.360880   1.813058  -4.658460
C  -0.559589   2.309357  -4.360286
C   0.420110  -0.193705   0.284733
C   0.233110   0.225711  -0.365391
C  -1.571777  -1.158312   1.867624
C   0.984570   1.063266  -0.654959
C   0.680269  -0.063857  -1.592267
C   0.179669  -0.081455  -0.990150
C  -0.389733   0.624861   1.855290
C  -0.750946   0.347411  -1.115067
C  -0.732464   0.075736  -1.042207
C   8.163516  -2.360866  -3.129251
C  -2.282964  10.842710 -10.353762
C   1.029448  -0.391997   2.564650
C  10.722071  -4.789887   7.297369
C  -0.152541   0.046363   0.167275
C  -2.142373   0.339977  -1.671843
C   5.781515  -5.328969   6.343341
C   1.008121   0.523108   0.450750
C  -3.729816   0.111292  -0.233952
C   2.325136  -8.234472  11.591337
C  -6.182551   3.485201  -0.791708
C -11.630744   4.458668  -5.067107
C   0.655635  -0.200622  -4.878613
C  -0.414929   0.101880   0.372333
C  -0.156896   0.097351  -0.474734
C   1.391676  -0.573939   2.170064
C  -1.008480  -0.228058  -1.151359
C  -0.357219   0.968406  -1.492728
C   0.411848  -0.565945   0.016586
C  -0.903543   1.526345   0.755275
C   1.183678  -0.707194   0.381648
C   1.133518  -0.503510   0.108554
C  -4.447414  -6.150487  -4.200640
C   6.897246  -9.965789   8.960770
C  -2.524038   1.713579  -0.389307
C -12.218891   1.563347  -5.013375
C  -0.001574   0.242380   0.009196
C   2.630047  -0.375508   0.581653
C  -8.004349   3.342830  -5.294579
C  -0.983755  -0.199638   0.628032
C   3.270875   1.452342   0.654114
C  -7.623613  10.184235  -6.537744
C   5.135043   2.821039   5.246338
C  12.411515   1.048668   5.103475
C   2.508048  -4.737015  -1.547829
C  -0.010829   0.769432   0.348478
C   0.495461  -0.424679  -0.028150
C  -2.702728   1.449777  -0.283650
C   1.496994  -0.236669  -0.326989
C   0.977623  -1.071099   0.674394
C  -0.183482   0.615720   0.554022
C   0.186296  -1.222026  -1.530934
C  -1.005932   0.844653   0.322587
C  -0.769138   0.973083   0.092330
C   4.088881  -1.286532   7.655635
C -14.767442   0.860549   5.163887
C   1.828440  -1.976409  -1.039859
C  10.812140  -7.855792   2.363685
C   0.009125  -0.057945  -0.169611
C  -1.667881   2.133214  -0.093321
C   9.217892  -4.141745  -0.101947
C  -0.017808  -1.054247   0.578447
C  -1.587507   2.398889  -2.344120
C  12.091379  -2.997390  -6.572108
C  -5.381542   1.905849  -4.360720
C  -9.856092   7.775057  -4.652276
C  -1.641648   2.792422   4.113549
C  -0.082718  -0.209868  -0.621514
C  -0.311740   0.425814   0.257419
C   1.955499  -1.811787  -0.592716
C  -0.685857   1.498707   0.081654
C  -1.483352   0.572022   0.643280
C   0.125610   0.035221   1.388585
C  -0.083943   0.335492  -2.216631
C   0.835731  -0.667557   0.766373
C   0.740661  -0.764921   0.823734
C  -2.755506   6.755000   5.837266
C  13.545376  -1.917325   5.966175
C  -1.676832   1.257287  -2.176177
C  -8.220128   9.655849  -2.983732
C   0.051670  -0.041981  -0.106964
C   1.245300  -2.524082   0.692812
C  -7.862885   5.598947  -2.863534
C   0.243778   1.137724  -0.296114
C   0.855958  -3.584426  -0.764810
C -11.669067   2.317122  -8.121778
C   3.828882  -6.587194  -3.827769
C   8.346957  -9.945844   1.772885
C   1.377533  -0.235713   5.706913
C   0.040319  -0.322313  -0.742072
C   0.196172  -0.416252   0.542624
C  -1.983820   1.628983  -1.873210
C   0.058140  -1.377947   0.836759
C   1.345948  -0.487535   0.939783
C  -0.055042  -0.968544   0.271477
C  -0.390748   1.727235  -0.510735
C  -0.462620  -1.200078  -0.478009
C  -0.757848  -1.066276  -0.310821
C   7.406505  -2.417744   3.708073
C   0.430208  -9.983325 -11.436633
C   1.024264   2.588390   0.852591
C   9.220380   7.759361   6.411466
C  -0.100521   0.183658  -0.036133
C  -1.920074  -1.879823  -0.810678
C   4.539095   6.441501   6.495848
C   0.858847   0.529351  -0.467013
C  -3.739180  -0.593965  -0.679568
C  -0.322101  11.011214   8.787380
C  -5.667113  -0.563640  -5.189454
C -10.243032  -5.226934  -7.015147
C   1.056249  -5.107656   0.346462
C  -0.411445   0.478290  -0.285000
C  -0.064900  -0.483735  -0.199820
C   1.383822   2.604607   0.608729
C  -0.937114  -1.312192  -0.039627
C  -0.015062  -1.304421  -0.995180
C  -0.077053  -0.033601   0.601785
C   0.928231  -0.501966  -1.352637
C   0.481857  -0.321675   1.363775
C   0.159781  -0.720331   1.226203
C  -4.441366   7.062813   0.585100
C   7.736559   2.682357  11.954250
C  -0.120979   0.472030  -3.039959
C  -4.897444   7.115131 -10.403001
C   0.055545  -0.093585  -0.142435
C   0.377489  -1.584598   2.324815
C  -4.821842   2.756606  -8.544271
C   0.624507   1.045725  -0.253672
C   1.037523  -3.356954   1.243922
C  -5.323374  -2.731119 -12.743121
C   4.513151  -4.995385   2.809661
C   5.597244  -8.861854   8.613817
C  -1.619136   1.538585   4.461698
C   0.336000  -0.387531  -0.197538
C  -0.034991  -0.058169   0.471949
C  -0.404899   0.813397  -2.533955
C  -0.450297  -0.889035   1.339880
C   0.571594   0.226884   1.577650
C   0.130465  -0.876307   0.007199
C   0.407181   1.731693  -0.084986
C   0.925384  -1.101611   0.165257
C   0.789589  -0.995853  -0.185532
C  -7.077117  -2.935625   3.804158
C   9.649446  -8.075114   8.680585
C  -1.500013   2.519891  -0.037804
C -11.652128   6.786362   1.989156
C   0.075574   0.183347  -0.044950
C   2.032671  -1.705763  -0.805844
C  -8.466015   5.468611  -1.209643
C  -0.518681   0.312945   0.977411
C   2.808228  -0.504607  -2.355960
C  -7.798286   9.638306  -6.723322
C   7.023367  -0.102885  -1.538128
C  11.892029  -5.294441  -2.507433
C  -0.245279  -4.991210   1.168342
C   0.377862   0.473909  -0.206070
C   0.236552  -0.505436   0.012412
C  -1.579475   2.124962   0.020731
C   0.756358  -1.244008  -0.772709
C   1.070640  -1.120076   0.685990
