1100
1100
C  -0.449239   0.623550   0.660694
C   1.043347  -1.360500  -1.113089
C  -0.244467   0.031370   1.374356
C  -0.522899  -0.021213   1.235331
C  -1.597927   8.656726  -2.785606
C   5.160631   4.599752  12.511157
C   0.683272  -0.568281  -2.788199
C   0.406937   4.696052 -12.857251
C   0.094232  -0.275057  -0.076237
C  -0.749537  -0.764718   2.667160
C  -1.545926   1.155855  -9.929878
C   1.108717   0.351792  -0.556219
C  -0.952464  -2.759964   2.208439
C  -3.281921  -4.706580 -13.208260
C   2.127332  -4.769586   4.842802
C   0.021266  -7.656674  12.175354
C  -1.849061   3.312978   3.457524
C   0.281614  -0.599640  -0.124775
C  -0.199402   0.026289   0.513049
C   0.587153  -0.161466  -2.744842
C  -1.048700  -0.251650   1.378224
C   0.165936   0.412197   1.511793
C  -0.560120  -0.679937  -0.270084
C   0.883697   1.371129   1.129828
C  -0.481365  -1.019733   0.580853
C  -0.114398  -1.390833   0.352833
C  -5.607670   1.576568  -7.214242
C  -8.947167  -8.610853   8.148468
C   1.057054   2.709307  -0.231476
C  -0.178707  11.244010  -7.977389
C   0.193552   0.128009   0.182249
C   0.016745  -2.529886   0.854136
C   2.803237   7.533335  -5.866900
C  -0.960556   0.902539   0.061763
C   1.819601  -2.349741   1.907178
C   9.244060   9.495464  -5.204773
C   1.615688  -3.427555   6.181307
C   1.712675 -10.073563   8.944942
C  -2.881647  -3.781945  -1.650790
C   0.401949   0.160920   0.419499
C  -0.177966  -0.415008   0.188303
C   0.777759   2.564238  -0.537402
C   0.363263  -1.533133   0.114658
C  -1.127774  -1.188155   0.788158
C   0.751737   0.405084   0.228248
C  -1.178264  -1.586244   0.052124
C   0.038285   0.996901   0.882517
C   0.059953   1.085570   0.694023
C   8.745834   0.091908  -2.714083
C   3.257714   5.573564  13.438063
C  -0.391132  -2.503128  -1.347797
C   5.706206  -8.829757  -8.948393
C  -0.261098  -0.052948  -0.072566
C  -0.948914   2.204043   1.313133
C   1.753834  -5.609708  -8.203347
C   0.944654  -0.928733   0.115860
C  -2.842851   1.789738   1.179490
C  -3.776523  -7.323367 -11.580727
C  -4.599429   1.752282   5.097133
C  -6.729006   7.348340   8.881456
C   2.696579   3.807345   1.094647
C  -0.423914  -0.101381   0.081043
C  -0.009910   0.459314   0.238714
C   0.227519  -2.034359  -1.483292
C  -0.422023   1.606268   0.407993
C   0.583291   0.999454   1.615257
C  -0.102888   0.696197  -0.509731
C   0.479157  -1.759346   1.009293
C   0.526866   0.412519  -1.069893
C   0.788016   0.608407  -0.779247
C  -8.281986   3.642850  -0.716840
C   1.893191  -0.210168 -15.496042
C  -0.891194  -1.655057   2.234190
C -10.501496  -2.669487   8.122506
C   0.117783  -0.174017   0.055918
C   1.970119   1.312760  -1.434713
C  -5.927136  -1.149485   8.147618
C  -0.851099  -0.751841  -0.189549
C   3.673830   0.460146  -0.274888
C  -1.934947  -2.200912  13.944200
C   6.725913  -1.875358  -2.497871
C  11.596488   1.327195  -6.524993
C  -0.883669   3.771720  -3.385121
C   0.395853  -0.411109   0.147949
C   0.185653   0.355509  -0.325779
C  -1.298542  -1.326351   2.174116
C   0.991539   1.213598  -0.602998
C   0.499878   0.504708  -1.607941
C   0.485978   0.365078  -0.730328
C  -0.453630   0.048539   1.974662
C   0.772141   0.973625  -0.552351
C   0.636472   0.957074  -0.877805
C   0.851946  -7.612879  -5.369448
C  13.588582   5.044995  -3.163425
C  -1.398232  -1.635748   2.064268
C  -5.736492 -12.303392   2.333553
C   0.008967   0.063168   0.239114
C   0.895283   2.222914  -1.069149
C  -6.666790  -7.339913   1.997571
C   0.363473  -1.182595   0.204684
C  -0.301068   3.466564   0.133681
C -12.019522  -5.303910   5.544361
C   2.642533   6.467164   2.113267
C   4.795544  12.414241   0.511620
C   2.055655   0.492447  -4.545617
C  -0.053409   0.279500   0.598390
C   0.201552   0.328191  -0.400932
C  -1.399473  -1.787825   1.368779
C   0.016180   1.380863  -0.962313
C   1.386791   0.726885  -0.752133
C   0.403722  -0.620663  -1.396692
C  -0.574572   0.165395   2.337682
C   0.256659   0.801547  -1.160395
C   0.132277   0.938354  -1.288117
C   4.238171  -7.784723  -3.522569
C  10.995523   9.101484  -5.540934
C  -0.547825  -1.524762   2.739434
C   0.360270 -11.145700   6.083413
C  -0.005535   0.106853  -0.043514
C  -0.389402   2.081920  -1.767973
C  -2.424489  -8.706916   4.415352
C   0.792436  -0.428107   1.007427
C  -2.078281   3.048863  -0.620992
C  -8.721986  -8.138109   7.878762
C  -1.342341   8.108557   1.842630
C  -1.649796  12.107638  -5.285809
C   2.307026  -0.038293  -5.473299
C  -0.280152   0.332074   0.605507
C   0.163524   0.361741  -0.584191
C  -0.538832  -2.034659   2.563829
C  -0.464033   0.830186  -1.185440
C   0.823348   0.949064  -0.910861
C  -0.216213  -0.207293   0.805894
C   0.539595   0.146290  -1.901178
C   0.746798  -0.104173   1.026924
C   0.844960  -0.395294   0.980534
C  -7.073220   4.033619   2.965596
C   9.873809   6.691460   9.265285
C  -1.191581   0.478231  -2.693294
C -10.594565   4.143520  -7.099919
C   0.069424  -0.107562  -0.163951
C   1.817015  -1.191226   1.757426
C  -8.250407   0.411157  -5.909561
C   0.019235   0.983001  -0.535372
C   2.501698  -2.656607   0.420169
C  -7.751784  -4.838943 -10.645377
C   7.659793  -1.861081  -0.205386
C  10.857561  -6.237856   5.256629
C  -0.620762   0.458265   5.340027
C   0.452155  -0.206320  -0.558598
C   0.218298  -0.058422   0.502660
C  -1.445272   0.774837  -2.427779
C   0.589809  -0.873505   1.109535
C   1.021275   0.547817   1.106201
C   0.907436   0.067745   0.410880
C  -1.895897  -0.305971  -0.678907
C   1.403144   0.077680  -0.682115
C   1.231442  -0.296770  -0.412566
C   1.093578   4.397808   7.192936
C   9.914691   8.489207  -7.987109
C  -2.907722  -0.343565   1.148602
C  -9.051632   1.641050   9.156579
C  -0.201275   0.068084  -0.146205
C   1.988966  -1.166647  -1.761101
C  -7.170263  -0.838248   7.119885
C  -0.507751   0.964231   0.225503
C   1.212041  -2.294496  -2.779168
C -11.007112  -6.729374   5.865660
C   0.500485  -3.179306  -7.756309
C   8.219380  -3.490376 -10.130572
C   5.401426   1.696963   1.552192
C  -0.642086  -0.230552  -0.633515
C   0.613954  -0.004388  -0.118226
C  -2.836132  -0.255237   1.199150
C   1.247669  -0.606275  -0.425881
C   1.283723   0.854781  -0.719351
C  -0.557277   0.969946  -0.216085
C   1.186538  -1.607193   0.511612
C   0.153956   1.297440   0.008084
C   0.074892   1.235562   0.318399
C  -6.115404  -0.455141  -6.690974
C   7.353806  12.593698  -4.548065
C   0.212300  -2.988190  -0.045721
C  -4.924403 -11.065702  -5.363503
C   0.102597  -0.073287   0.146245
C   0.523000   2.388576   1.277190
C  -4.681875  -8.737977  -1.487772
C   0.372375  -0.391446  -0.991014
C   1.253760   1.753302   3.056115
C  -4.252246 -12.663409   4.468341
C   5.854511   2.898179   4.182692
C   6.787032   9.384642   6.305326
C  -2.460572   4.673384  -1.782939
C   0.577896  -0.350487   0.413799
C  -0.162553   0.647905   0.065754
C  -0.187379  -2.864318  -0.533287
C  -0.295574   1.306800   0.774089
C   0.610876   1.556086  -0.612254
C  -0.417879  -0.612326   0.147784
C   0.440365   1.920018   0.360612
C  -1.196704  -0.868130   0.125171
C  -1.073868  -0.691372   0.420123
C   4.634175  -5.049582  -5.142521
C -13.631941  -2.624057  -6.823512
C   2.455860   1.771847   0.082920
C  12.467954   2.453121  -4.298822
C  -0.042936   0.216060   0.019905
C  -2.044286  -1.150349   1.230436
C   9.954151   1.766281  -0.687991
C   0.420839   0.428263  -1.052329
C  -2.177281   0.039631   2.913446
C  11.927399   4.947799   5.240928
C  -6.129830   2.665362   3.706946
C -11.738616  -0.854174   5.632994
C  -1.978325  -4.726064  -1.606212
C  -0.093120   0.625167   0.309157
C  -0.374821  -0.440166   0.042721
C   2.383400   1.728349  -0.461562
C  -1.002301  -1.019938   0.648471
C  -1.557211  -0.480984  -0.355935
C   0.081329  -0.456156   0.496861
C   0.459213   1.243839  -1.061484
C   0.849040  -0.968631   0.648210
C   0.772234  -0.790907   0.468179
C  -6.561981   0.903898   4.732228
C   9.559554  -1.494141  11.755400
C  -1.399217   2.092554  -1.545251
C -10.883545   7.678927  -2.478998
C   0.042528   0.090383  -0.250192
C   1.850136  -2.117577   0.274150
C  -8.314632   4.184757  -4.232419
C  -0.165215   0.900681   0.307786
C   2.506637  -2.317796  -1.326157
C  -7.878162   3.330296 -11.135141
C   7.002455  -1.821953  -1.911777
C  11.435137  -6.984905   0.421401
C  -0.487715  -3.087416   4.141109
C   0.421631   0.223884  -0.535776
C   0.165565  -0.422682   0.319549
C  -1.548801   2.005983  -1.204534
C   0.514545  -1.525755   0.271370
C   0.898884  -0.543637   1.415103
C  -0.083613   0.220933   0.734673
C   0.892980  -0.102105  -1.766157
C   0.376703   0.813280   0.944550
C   0.703380   0.225539   1.079829
C  -8.896461  -0.787138   1.876526
C   1.306670  13.559502   6.087838
C  -0.324099  -1.186885  -2.618396
C  -9.536221  -6.350963  -7.637688
C   0.175696  -0.069864  -0.166370
C   1.667835   0.811310   1.959306
C  -5.122603  -6.856437  -5.331276
C  -0.886826   0.633604  -0.654659
C   3.599157   0.113625   1.121929
C  -1.265455 -11.870650  -8.039501
C   6.311503   3.435022   0.791664
C  10.913129   5.754097   5.730168
C  -1.694567   1.612077   4.488894
C   0.505232   0.006743  -0.417222
C   0.052317   0.352670   0.422530
C  -1.054640  -1.032453  -2.201469
C   0.672042   0.262966   1.472637
C   0.119611   1.395772   0.993553
C   0.789059   0.687501  -0.107975
C  -1.092377  -1.906752   0.515397
C   1.079789   0.552640   0.690060
C   0.673520   0.937625   0.691093
C   2.314675   3.194662  -8.963357
C  13.678554   1.960235   5.296481
C  -2.088538  -1.927542  -0.836413
C  -6.046252  -3.972954 -11.600958
C  -0.162613  -0.233239   0.190444
C   1.020067   1.381859   1.957454
C  -6.846241  -2.211725  -6.960633
C   0.461276  -0.762187  -0.953252
C  -0.434833   0.731279   3.454152
C -13.300795  -3.714954  -4.834667
C   1.623213  -1.369560   6.884575
C   4.331808   1.827726  12.900493
C   3.113844   4.121422  -0.402879
C  -0.185416  -0.575544   0.337099
C   0.280552   0.385386   0.202257
C  -1.639897  -1.438529  -1.683614
C   0.342245   1.163400   1.005640
C   1.673338   0.465706   0.494961
C   0.026158  -0.882197   0.319321
C  -0.226855   1.883553  -0.312928
C  -0.558828  -0.735800   0.904965
C  -0.185333  -0.817468   1.103398
C   1.628704  -6.302061  -6.209836
C -11.672476  -7.031811   5.857603
C   0.965982   1.820051  -1.998354
C   5.796500   1.522745 -12.530169
C   0.047031   0.276790   0.026771
C  -0.575866  -0.779350   2.689029
C   6.246921   2.590415  -7.567875
C  -0.624335  -0.227333  -1.322469
C  -0.151245   1.209845   3.417178
C   9.804274   8.145392  -6.073433
C  -3.330587   2.312360   5.722574
C  -6.062637   0.881684  12.144227
C  -0.560972  -4.699385   1.379276
C  -0.131755   0.548310   0.170185
C  -0.085606  -0.393386   0.323749
C   0.817728   1.190434  -2.214257
C   0.278725  -0.826636   1.581918
C  -1.291651  -1.007914   0.677129
C   0.366064   0.020133   1.088043
C  -0.046582   0.094539  -2.147925
C   0.282450   0.773965   1.096887
C   0.584854   0.782938   0.920939
C  -5.511459  -5.646091   4.983508
C  -3.029717  12.727882   7.978129
C  -0.848314  -1.549412  -2.378574
C  -6.600880 -10.412971  -4.810067
C   0.026854   0.042211  -0.121469
C   1.555551   1.434163   1.497210
C  -2.471017  -8.805448  -4.154882
C  -1.226267   0.099096  -0.575382
C   3.209965   1.909445  -0.176896
C   2.501601 -10.529977  -9.196047
C   3.704463   6.631889  -2.213523
C   6.288179  11.000386   2.704372
C  -0.383853   0.646931   5.686698
C   0.244644   0.219574  -0.749602
C   0.155782   0.347776   0.567517
C  -1.024399  -1.722092  -2.496248
C   1.077840   0.593469   1.014596
C  -0.035193   1.258170   1.153019
C  -0.300058  -0.729049  -0.554389
C   1.076607   1.321576   1.217029
C  -0.003604  -1.494534  -0.307324
C   0.129414  -1.304389  -0.252647
C  -8.299863   1.808879  -3.346677
C  -4.146693 -13.071646   7.522054
C   0.312955   2.994738   0.367785
C  -5.388899  12.396033  -1.373438
C   0.140575   0.114233   0.045277
C   1.205280  -2.370336  -0.472573
C  -1.757555   9.577375  -2.451722
C  -0.871849   0.451437   0.695365
C   3.007879  -2.040948  -0.089170
C   4.217429  13.076970  -3.636935
C   5.480550  -4.579536   2.865269
C   6.992028 -11.220127   2.939088
C  -3.165703  -3.846772  -1.898472
C   0.650459   0.144787   0.217739
C  -0.039228  -0.606984  -0.081431
C   0.023755   2.866552   0.502665
C   0.562921  -1.387663  -0.958626
C  -0.507428  -1.612940   0.460526
C   0.143440  -0.062916  -1.516085
C  -0.313427  -0.354028   2.226284
C  -0.430033  -0.690630  -1.188874
C  -0.274305  -0.929679  -0.981156
C   2.034881   8.406478  -4.927423
C -11.396749  -3.705270  -8.508155
C   0.616316   1.117164   2.425782
C   5.339639  12.024530   4.881847
C  -0.082424  -0.131495   0.301062
C  -0.218471  -2.154977  -1.313720
C   5.811901   6.716064   4.447354
C  -0.537454   1.084679   0.152530
C   0.035895  -3.718263   0.083266
C   9.982175   4.221524   9.329965
C  -2.746965  -5.901004   0.606527
C  -5.262912 -12.307800  -2.736710
C  -0.819897  -0.160555  -4.816704
C  -0.100432  -0.195492   0.561435
C  -0.123414  -0.238693  -0.441355
C   0.874320   1.539369   1.642110
C   0.296495  -1.352422  -1.168854
C  -1.159878  -0.611492  -1.145712
C  -0.679497  -1.062458  -0.535688
C   1.262691   1.636562   1.229438
C  -0.363572  -1.339193   0.269122
C  -0.159506  -1.422398   0.147355
C  -6.508020   1.556611  -7.256090
C  -8.605630  -8.783575   8.647106
C   0.991311   2.771277  -0.107265
C  -1.671917  11.551218  -6.822607
C   0.133836  -0.010499   0.186874
C   0.332579  -2.395149   0.395542
C   1.471826   7.981766  -5.772869
C  -0.717469   0.975469   0.159204
C   2.570120  -2.152331   1.436362
C   8.316904  10.099367  -6.125787
C   2.357779  -3.262917   6.032664
C   3.482665 -10.858850   6.784756
C  -2.963583  -4.064853  -1.546569
C   0.356296   0.186236   0.361320
C  -0.154943  -0.584957   0.133581
C   0.323842   2.771207  -0.374099
C   0.269400  -1.667994  -0.118773
C  -0.745789  -1.191189   0.818084
C   0.903985  -0.287459   0.013369
C  -1.924342   0.987881   0.547006
C   1.175191   0.277473   0.255510
C   1.329967   0.418839   0.087988
C   1.477427  -9.188390  -1.187634
C  10.801874   3.016811  10.824367
C  -2.892727  -0.315674   0.051351
C  -9.557943  -9.276925  -2.707245
C  -0.198627   0.250222  -0.001866
C   2.062955   1.388265  -0.084422
C  -7.487568  -4.934216  -4.166353
C  -0.864861  -0.633552   0.863235
C   1.230073   3.410945  -0.648195
C -11.926132  -0.991636  -8.001548
C   1.427792   6.539243   2.732151
C   8.054201  10.847949   2.507821
C   5.090673  -1.862603  -0.143082
C  -0.650879   0.552933   0.086502
C   0.592626   0.078890   0.003907
C  -2.796627  -0.868412  -0.166685
C   1.418943   0.655769  -0.506214
C   1.498005   0.192301   0.817493
C  -0.581721  -0.163995  -0.392455
C   1.142080   0.751011   1.044544
C  -1.088081   0.536647  -0.773993
C  -1.274541   0.356620  -0.448016
C   2.408813  -6.688849  -4.024781
C  -5.001042   6.670234 -12.420832
C   2.488249  -1.024011   1.696358
C   9.925174  -8.120874   3.239148
C   0.129182  -0.007062   0.051986
C  -2.392543   1.415674  -0.330431
C   6.321853  -6.558028   4.820811
C   1.025416  -0.009929  -0.414399
C  -2.579629   2.225045   1.375932
C   5.902290  -4.770652  11.746538
C  -3.344415   7.683681   1.569727
C  -8.779031   9.536390  -2.014676
C  -3.267157  -2.124104  -4.267884
C   0.151918   0.587026   0.505636
C  -0.492807   0.086255  -0.291453
C   2.739617  -0.825702   1.754395
C  -1.582214   0.036932   0.011259
C  -0.830492   0.711286  -1.153283
C  -0.942994   0.111522  -0.860668
C   1.104803  -0.231293   1.690965
C  -0.302513  -0.863622  -0.972906
C  -0.049649  -0.577833  -1.222420
C  -7.209740   5.079694   0.419188
C  -7.402212 -13.057943  -5.287221
C   0.761722   1.439822   2.448773
C  -2.669266   9.666566   8.774819
C   0.151655  -0.063343   0.117788
C   0.919821  -1.728825  -2.192743
C   0.314474   8.311616   5.838691
C  -0.702712  -0.323075   0.848317
C   2.605091  -1.821999  -1.969170
C   7.210142   9.812103   7.018692
C   5.174841  -5.878435  -1.793144
C   5.053268 -10.871000  -6.957376
C  -3.590713  -0.292435  -4.111135
C   0.621960  -0.354434   0.289933
C  -0.174566  -0.209344  -0.491799
C   0.441759   1.772334   2.369658
C   0.172817  -0.265880  -1.493196
C  -1.022309  -1.262160  -0.917658
C   0.159090  -0.017258   0.878649
C  -0.703916  -0.467016  -2.143990
C  -0.446075  -0.538411   1.158361
C  -0.568274  -0.123156   1.223608
C   9.017039   2.459088   2.934423
C  -2.068706 -11.923141   9.437693
C   0.288358   0.492779  -2.855919
C   9.775232   5.002819  -8.160725
C  -0.181552  -0.119143  -0.283679
C  -1.781887  -0.119300   1.969415
C   5.116573   5.352973  -6.612274
C   1.056005  -0.542582  -0.437161
C  -3.453944   0.009197   0.765176
C   1.477007   9.419015 -11.254115
C  -6.645301  -2.899404   0.478923
C -10.639036  -4.968371   6.984460
C   1.145039  -0.020145   5.283275
C  -0.387567  -0.204533  -0.711661
C  -0.166173  -0.037181   0.622563
C   1.074311   0.880089  -2.341103
C  -1.092662   0.380874   1.261606
C  -0.217122  -1.138703   1.410128
C  -1.428294   0.642822   0.698588
C   2.172204  -0.806217  -1.141984
C  -0.959352  -0.547161   0.869240
C  -1.092108  -0.656393   0.595499
C  -2.513571   9.950534   3.555139
C  -2.118262  -8.815888  13.704751
C   2.270130   0.580429  -1.408353
C   5.843168  12.130728  -3.553235
C   0.124066  -0.275088  -0.102232
C  -1.776719  -1.646211   0.412072
C   3.468925   7.571072  -5.115415
C   1.006430   0.520808   0.574703
C  -1.232810  -3.279737  -1.223655
C   4.725111   6.366303 -12.276110
C   0.224270  -6.585437   0.553622
C  -3.825868 -12.942378   2.977664
C  -3.838678   0.245131   3.151664
C   0.289734  -0.194085  -0.287974
C  -0.391790  -0.347914   0.204658
C   1.779784   1.597535  -1.231850
C  -1.566860  -0.916775   0.049610
C  -0.652285  -0.873271   1.357191
C   0.248732  -0.291322  -0.472621
C  -1.447083   0.736031   0.838592
C   0.049832  -1.231179  -0.307367
C   0.306161  -1.136940  -0.199284
C   4.496119   4.548956  -5.385125
C  -1.543172 -10.918835  -9.690648
C  -1.052000   2.697330   0.652739
C   0.334436  13.474746  -0.363106
C  -0.097211   0.049621   0.170622
C   0.576853  -2.723616   0.114471
C   0.901676   9.879850   2.625832
C  -1.063788   0.620210  -0.636994
C  -0.570871  -2.946562   2.394771
C  -0.851004  10.748209   9.389091
C  -4.214760  -6.282818   1.465640
C  -2.945412 -12.966111   0.949549
C   3.706834  -2.214414  -2.948773
C  -0.491141  -0.156742   0.399500
C   0.240373  -0.426077  -0.184643
C  -1.019960   2.768770   0.542787
C   1.169489  -1.358311   0.299243
C   0.113564  -1.251557  -0.955388
C   0.633030   0.052716  -1.276414
C  -0.779295   0.220505   2.198560
C   0.770695   0.891068  -0.589584
C   0.506881   0.850842  -0.742508
C   1.030429  -7.946750  -5.958855
C  13.211902   6.079276  -0.958001
C  -1.601406  -1.231758   1.856029
C  -6.151367 -12.608831   1.231318
C  -0.063499   0.197777   0.272842
C   0.992668   2.182634  -1.076187
C  -6.760161  -7.127241   1.045841
C   0.175741  -1.061361   0.249355
C  -0.610123   3.558224   0.100736
C -12.981715  -5.395266   3.442655
C   2.330271   6.037490   2.001490
C   4.677599  12.943146   1.034771
C   2.651224   0.578440  -3.827192
C  -0.127430   0.230910   0.461714
C   0.324983   0.175971  -0.210000
C  -1.249858  -1.957932   1.094476
C   0.396250   1.159152  -1.019901
C   1.463829   0.797437  -0.507429
C   0.260265   0.621581  -0.038519
C  -1.486994  -1.355223  -0.251801
C   0.114256   1.311989  -0.247733
C   0.074335   1.331844  -0.503650
C   6.328672  -0.700527   6.332829
C  -3.850121  13.275315   4.384503
C  -0.755127  -2.867084   0.520857
C   3.215270 -11.627626   6.235779
C  -0.185119  -0.086252  -0.084468
C   0.543820   2.213830  -1.113847
C   2.789692  -9.539720   1.780816
C  -0.576180  -0.437607   1.047773
C  -0.999661   1.471789  -3.282200
C   1.278498 -13.877251  -3.767283
C  -5.415346   4.387990  -3.256955
C  -3.838840  10.114270  -7.520190
C   3.318952   4.058070   1.072533
C  -0.561486  -0.200806  -0.327182
C   0.123981   0.596638  -0.129191
C  -0.454916  -2.765754   0.756054
C   0.511582   1.217908  -1.005569
C  -0.222084   1.506733   0.230875
C   0.554513  -0.747417  -0.652030
C  -1.233171   1.301549   1.258793
C  -0.065882  -1.482486   0.028265
C   0.401890  -1.358621   0.262571
C   3.129084   1.757071  -8.472237
C  -6.864391 -13.541883  -2.926759
C  -0.668663   2.865931   0.255204
C   0.787538  12.130516  -5.968513
C  -0.098407   0.065796   0.124333
C   0.594986  -2.436496   0.948283
C   2.237634   9.637040  -2.121098
C  -0.736526   0.350966  -0.693312
C   0.443279  -1.944139   3.174968
C   3.653524  13.248276   3.970270
C  -2.823929  -4.275409   5.128375
C  -1.786141 -10.734570   7.635605
C   2.065319  -3.904480  -2.760462
C  -0.286831   0.154871   0.524147
C   0.039974  -0.549679  -0.027805
C  -0.614100   2.889097  -0.094016
C   0.615661  -1.271508   0.483821
C  -0.520197  -1.710495  -0.418637
C  -0.581249   0.190458   1.329780
C   0.237749  -0.436690  -2.286502
C  -0.531042  -0.743628   1.142775
C  -0.678115  -0.776720   0.817695
C   3.799125   7.442515   4.935139
C   4.479474 -12.146437   8.705753
C   0.567183   1.258375  -2.482490
C   5.023629  11.486627  -5.225231
C  -0.039279  -0.196778  -0.198871
C  -1.428902  -1.751537   1.171633
C   1.317414   8.502118  -4.832999
C   1.172337   0.283789   0.049479
C  -2.625317  -2.652583   0.131202
C  -3.182499   9.165712 -10.350277
C  -2.720958  -6.473565  -1.198176
C  -5.549387 -12.145733   3.432311
C   0.010967  -0.338509   5.267853
C  -0.165488  -0.198175  -0.619360
C  -0.210511  -0.242148   0.502029
C   0.601819   1.891759  -2.038531
C  -1.110058  -0.632024   1.023418
C   0.267737  -1.060545   1.386857
C   0.081576   0.040905  -1.356102
C  -0.714913   0.068793   2.119309
C  -0.584074  -0.648429  -1.048036
C  -0.366517  -0.667369  -1.181831
C   4.749288   6.996501  -5.269248
C -11.772902  -1.646053  -9.662321
C   0.574349   1.322881   2.435760
C   7.704209  10.551617   4.957872
C  -0.059232  -0.147709   0.156737
C  -0.734691  -2.016110  -1.359337
C   6.740000   5.280289   5.094218
C  -0.342350   1.398698   0.122316
C  -1.098175  -3.491941   0.401956
C   9.118881   2.435442  11.016146
C  -4.736331  -4.905688   0.090193
C  -7.801789 -11.259109  -2.320477
C   0.117600  -0.496465  -4.807851
C  -0.204136  -0.226874   0.339172
C  -0.160278  -0.321342  -0.316135
C   0.995861   1.490268   1.735875
C   0.021061  -1.459659  -1.008291
C  -0.839259  -0.561158  -1.258892
C  -0.526804  -0.366470  -1.182620
C   0.968519   0.301074   1.995061
C  -1.288675  -0.333348  -0.363809
C  -1.050227  -0.626711  -0.306082
C   2.914191   3.597274  -8.768410
C -14.355629   3.884127  -1.299424
C   2.321317   0.778452   1.297327
C  12.091120   6.066905  -3.035131
C  -0.002197  -0.076828   0.306916
C  -2.034022  -1.582574  -0.275130
C   9.644968   1.750838  -1.175108
C  -0.028796   1.386948   0.214678
C  -1.731334  -2.657376   1.659290
C  13.728948  -2.352386   2.962898
C  -5.222759  -1.509341   4.751291
C -10.740963  -7.394088   4.915877
C  -3.180256  -0.746198  -3.918717
C   0.027745  -0.057982   0.610217
C  -0.501974  -0.178616  -0.073232
C   2.466269   1.147618   0.512501
C  -1.101024  -1.078454  -0.386562
C  -1.529064   0.155205  -0.241521
C  -0.129109   0.920542   0.502303
C   0.757211  -1.330689  -1.386959
C  -0.549019  -0.033154   1.219228
C  -0.625465   0.033584   0.986144
C   2.878741   8.669231   0.127655
C   1.637282  -1.723717  13.619064
C   1.119771  -0.213127  -2.670060
C   6.051075   6.280208 -10.183825
C   0.014398  -0.155355  -0.025205
C  -1.609717  -1.061334   2.024043
C   2.245253   3.920665  -9.004053
C   0.980008   0.105392  -0.044168
C  -2.394850  -2.413118   1.073132
C  -0.469377   0.352221 -14.154863
C  -1.620173  -7.199936   3.564058
C  -6.279336  -7.960042   8.745889
C  -1.413813   3.305832   4.081286
C   0.012747  -0.654179  -0.237584
C  -0.174093   0.058437   0.438377
C   1.560798   0.268043  -2.698515
C  -1.350456  -0.022989   0.936695
C   0.156968  -0.069273   1.502400
C  -0.225123   0.605192   0.410290
C   0.169901  -1.741523  -0.965499
C  -0.996670   0.640853  -0.065300
C  -0.665731   0.858781  -0.307710
C   2.944277   1.743251   8.773881
C -15.021464   3.367123   2.242193
C   1.660508  -2.180227  -0.140048
C  10.229967  -6.434777   6.793366
C   0.013801  -0.128081  -0.211428
C  -1.767310   1.826411  -1.427338
C   8.874690  -3.969464   2.414446
C  -0.120927  -1.005672   0.836363
C  -1.286651   1.091548  -3.335391
C  12.832338  -6.011660  -2.982215
C  -4.903604   0.218797  -5.045924
C  -9.344542   5.072237  -8.307375
C  -1.737535   4.205466   2.310849
C  -0.052172  -0.371525  -0.463836
C  -0.265699   0.443549  -0.022708
C   1.939225  -1.941815   0.413708
C  -0.480982   1.367044  -0.555952
C  -1.493461   0.779139   0.325040
C  -0.452531   0.195040  -0.059397
C   1.568681  -0.245242   0.828476
C  -0.842560   0.582753   0.340463
C  -1.054728   0.491867   0.352370
C  -0.562407  -0.332048  -8.554504
C  -6.004287  13.606875   0.602577
C   2.470787  -1.530717  -0.581408
C   8.588414  -6.399500  -8.288570
C   0.129632  -0.064849   0.110487
C  -2.163095   0.924836   1.480244
C   5.826838  -7.145895  -4.424959
C   0.991046   0.500795  -0.763398
C  -1.459825   0.045752   3.346310
C   8.105683 -11.715760   0.203925
C  -0.970085   3.205513   6.825485
C  -7.031741   6.167792   9.237063
C  -4.499635   1.706030  -2.421652
C   0.397341  -0.074771   0.566284
C  -0.530291   0.362364   0.023995
C   2.552734  -1.434093  -0.666000
C  -1.514938   0.186077   0.595929
C  -1.181183   1.437668   0.037529
C  -0.170343   0.577401   0.749051
C   0.858439  -1.412449  -1.696740
C   0.593729   0.286768   1.180424
C   0.171259  -0.072520   1.322004
C  -5.154700   7.765601  -1.803269
C   9.346853   6.905042   8.254600
C  -0.253057  -1.059523  -2.873889
C  -5.841928   2.475900 -11.625322
C   0.111159  -0.161411  -0.073036
C   0.407528  -0.332394   2.415337
C  -5.780776  -0.449749  -8.131424
C   0.431933   0.735435  -0.676249
C   0.821041  -2.548180   2.404319
C  -7.861271  -7.280180  -9.858197
C   5.417287  -5.011243   3.541512
C   6.933402  -3.105963  10.520058
C  -1.126691   3.936391   4.208068
C   0.352642  -0.753169  -0.359268
C   0.051533   0.205468   0.676872
C  -0.774529  -0.755513  -3.034625
C  -0.214710  -0.328523   1.345216
C   0.874369   0.560056   1.180708
C  -0.295508  -0.033979   0.354567
C   0.106002  -0.073455  -1.692661
C  -0.976360  -0.238782   0.855322
C  -1.098580   0.073245   0.777222
C   6.629601  -1.414943   4.041489
C  -7.827410 -10.483181   7.658710
C   2.044140   0.192001  -2.440430
C  11.847468   0.502565  -5.172841
C  -0.016518   0.095303  -0.087355
C  -2.368541   0.322982   1.460711
C   8.693917   3.188135  -4.382492
C   0.500114  -1.023450  -0.390875
C  -3.468650   1.399000   0.028638
C   7.003796   7.800763  -9.295223
C  -7.718785  -1.420389  -2.000463
C -12.506353  -0.503975   4.279387
C  -0.127457  -0.434398   5.604752
C  -0.456465  -0.002777  -0.666760
C  -0.294342  -0.043430   0.611764
C   2.152735  -0.064125  -2.091194
C  -0.980984   0.637168   1.136145
C  -0.847948  -0.815098   1.006758
C   0.922028   0.330208   0.321982
C  -1.230479  -1.218707  -0.621624
C   0.033327   0.937856   0.976297
C  -0.021635   0.869241   0.897481
C   8.183109  -1.483513  -1.329615
C   1.766286   2.016511  15.484619
C  -0.214087  -2.030196  -2.180836
C   5.065308  -8.290591  -8.960269
C  -0.096728  -0.018131  -0.028952
C  -0.894123   2.204836   1.499668
C   2.450564  -4.652636  -8.704445
C   0.178129  -0.975590   0.347056
C  -2.770992   2.277660   0.734875
C  -3.135307  -3.950645 -13.043629
C  -6.555302   1.472989   4.282626
C  -6.741487   8.315348   7.998640
C   3.643587   3.235408   2.411200
C  -0.602487  -0.101763  -0.037368
C   0.122031   0.469814   0.352688
C   0.021588  -2.281435  -1.988214
C  -0.071807   1.597602   0.547054
C   0.188763   0.606059   1.415632
C   0.140233  -0.331953  -0.515784
C  -1.654701   0.421189   0.779247
C   0.052998  -0.755114  -1.105662
C   0.163948  -0.874150  -1.001907
C   7.244304   5.214964  -0.572429
C  -1.955033  -1.433356 -14.924376
C  -1.062920   1.610864   2.081223
C   3.562209  10.328270   8.723072
C  -0.327022  -0.052263   0.175691
C   0.299465  -2.091908  -1.509637
C   2.099273   5.286992   8.312754
C  -0.045532   1.205549  -0.171018
C  -1.382671  -3.345103  -0.259329
C  -0.419558   2.553156  14.227476
C  -4.365317  -4.308453  -3.010143
C  -5.210394 -10.526980  -6.727879
C   3.278690  -1.131425  -3.266044
C  -0.545282  -0.114039   0.249152
C   0.221628  -0.288232  -0.431677
C  -0.278222   1.718979   1.848915
C   0.540362  -1.584759  -0.705196
C   0.167173  -0.521159  -1.778125
C  -0.883280  -0.673770  -0.120421
C   1.824725   0.706221   0.332333
C  -0.648238  -0.729789   0.888986
C  -0.475262  -1.070735   0.677874
C  -6.404364   3.248672  -5.703536
C  -8.647681  -0.098856  12.154448
C   1.926705   1.481769  -1.386343
C   1.809677   8.418075 -10.959445
C   0.281532   0.057699   0.059289
C  -0.755162  -2.219292   1.334946
C   3.094234   4.005797  -8.667125
C  -0.289600   1.144719   0.142956
C   1.349058  -2.747399   1.875024
C   9.113026   1.401540 -10.850119
C   1.895577  -2.934577   6.141395
C   0.725260  -7.793541  10.761242
C  -4.679833  -1.488722   0.623451
C   0.561561  -0.126778   0.208419
C  -0.347028  -0.140435   0.290225
C   1.468168   1.752843  -1.494602
C  -0.595600  -1.660316   0.367224
C  -1.131528  -0.024310   1.458841
C  -0.216581  -0.633846  -0.983685
C  -0.457114   0.146622   1.909339
C   0.500138  -1.276806  -0.499443
C   0.668738  -0.886495  -0.805408
C  -4.520723   4.056206  -6.877832
C  -1.533274 -14.351350  -5.110703
C  -1.300104   2.035361   1.607245
C  -7.597123  11.394542   0.503660
C   0.007456   0.057669   0.285245
C   2.025708  -1.912581  -0.641958
C  -3.136937   9.491705   1.553697
C  -1.183616   0.103628  -0.032280
C   3.046535  -1.802790   1.251989
C   0.080881  12.534250   7.020625
C   2.801862  -5.793501   3.539529
C   8.139374 -10.249899   0.675063
C   0.989909  -1.651116  -4.958600
C   0.045944  -0.120928   0.754647
C   0.262592  -0.298782  -0.413531
C  -1.507191   2.042538   1.363038
C   1.501589  -0.556056  -0.751750
C   0.040115  -1.533307  -0.839433
C   0.248138   0.199914  -0.821106
C  -0.782730  -0.434786   1.783261
C  -0.204421  -0.507566  -1.110915
C   0.164181  -0.681863  -1.103198
C   2.882727   8.197797  -2.367932
C  -8.348244  -1.027936 -12.516891
C   0.106279   0.794791   2.675504
C   3.308826  10.427749   8.380335
C  -0.179702  -0.092450   0.216223
C   0.057750  -2.119464  -1.861981
C   4.185993   5.480514   7.418759
C  -0.701863   0.980302   0.181078
C  -0.214423  -3.657174  -0.391897
C   5.848681   1.554112  12.946268
C  -4.018795  -5.927999  -1.276861
C  -3.273405 -12.192328  -5.234275
C   1.541683   0.703865  -4.959406
C  -0.421740  -0.340581   0.536629
C   0.124835  -0.166329  -0.539198
C   0.036029   1.403723   2.493985
C   0.594248  -1.030286  -1.219494
C  -0.654779  -0.357808  -1.586566
C  -0.019559  -0.063012  -0.518214
C   0.123873  -0.265325   1.856167
C   0.950121  -0.307378  -0.965184
C   0.986756  -0.195227  -0.883541
C  -7.473199  -0.192599  -4.041110
C   6.879316 -11.555662  -7.723827
C  -1.641071   0.337132   2.439614
C -12.191529   2.198755   5.669111
C   0.076344   0.082961   0.114772
C   2.303070   0.148101  -1.718668
C  -7.798174   4.148396   4.989787
C  -0.606812  -0.977421   0.339735
C   3.720746   0.941614   0.116246
C  -5.331678   8.745386   9.929428
C   7.253705  -2.223508   0.576651
C  12.634899  -2.699271  -3.519289
C  -0.105947  -0.448562  -5.246449
C   0.361130   0.001013   0.472026
C   0.258241  -0.167105  -0.556368
C  -1.890627   0.156718   2.220712
C   1.094440   0.579346  -1.233464
C   0.683606  -0.844677  -1.027137
C  -0.362589  -0.456903  -1.217190
C   0.590966   1.020120   1.848737
C   0.171069   0.316366  -1.417411
C   0.171074   0.229764  -1.350687
C  -2.765953  -9.301059  -1.062365
C   9.762629  -0.822147 -10.756357
C  -0.335847  -0.159992   2.828381
C  -4.173759  -8.369201   9.934278
C   0.126286   0.183056   0.062437
C  -0.052018   1.250111  -2.055323
C  -4.794062  -4.070314   7.738605
C   0.595440  -0.920778   0.672230
C  -0.276090   3.415796  -1.203152
C  -8.157011   0.791223  11.764033
C   2.745776   6.157206  -2.065839
C   4.210827   9.967595  -8.020262
C  -0.173739  -1.880566  -4.673968
C   0.047107   0.411304   0.276509
C   0.070963   0.106396  -0.575091
C  -0.482278  -0.812108   2.485506
C  -0.273757   0.733465  -1.547721
C   0.970481   0.028862  -1.538796
C   0.040819   0.287595  -0.607443
C   0.291497  -1.039447   1.284229
C   0.897774   0.371215  -0.938240
C   0.916354   0.641022  -0.821703
C  -7.588565   0.565123  -3.166162
C   6.755637  -3.551482 -13.227743
C  -1.686689  -1.249471   2.268707
C -11.417639  -2.907685   6.220100
C   0.003582  -0.144857   0.116558
C   2.234574   1.084416  -1.456446
C  -7.824256  -0.215918   6.613798
C  -0.714467  -0.833974  -0.171629
C   3.537998   1.385735   0.351560
C  -5.026739   0.966331  12.975937
C   7.628829  -1.397557  -0.389741
C  11.981945   2.389546  -4.593884
C  -0.820884   2.657703  -4.731795
C   0.505219  -0.520654   0.496232
C   0.233266   0.407627  -0.526201
C  -1.646484  -1.137585   2.195084
C   0.983553   1.311392  -0.678825
C   0.796622  -0.006399  -1.505352
C  -0.003324  -0.239540  -1.191254
C  -0.428519   0.666188   1.974326
C  -0.543041   0.042931  -1.268956
C  -0.643481   0.255744  -1.200020
C   8.247082  -3.215613  -3.459396
C  -2.424675  11.180559 -10.266618
C   1.092924  -0.268517   2.699774
C  10.765236  -4.692880   7.184159
C  -0.134689   0.055454   0.216245
C  -2.018599   0.129459  -1.751488
C   5.814723  -5.297750   6.310323
C   1.011156   0.512755   0.433137
C  -3.696659   0.162119  -0.308737
C   2.326644  -8.311920  11.572425
C  -5.885914   3.896820  -0.340157
C -11.265705   5.205536  -4.854836
C   0.549960  -0.314023  -5.093071
C  -0.310459   0.156880   0.516053
C  -0.169097   0.039589  -0.571464
C   1.418600  -0.514897   2.409537
C  -1.036798  -0.445986  -1.311123
C  -0.269577   0.962683  -1.653108
C   0.451917  -0.846911  -0.409389
C  -0.683576   1.402835   0.946342
C   1.036478  -0.621296   0.307136
C   1.306435  -0.417156   0.199762
C  -4.843221  -5.862298  -4.469965
C   7.016529 -10.280847   8.535073
C  -2.343939   1.671212  -0.193950
C -12.531068   1.592511  -5.116484
C  -0.035467   0.126031   0.065317
C   2.841896  -0.449195   0.406679
C  -8.005457   3.488711  -5.270505
C  -0.973056  -0.461747   0.574720
C   3.353336   1.730140   0.844745
C  -7.234239  10.506913  -6.037460
C   5.252363   1.758659   4.731862
C  12.135163  -0.037622   5.306672
C   2.185001  -4.244856  -1.485909
C   0.163847   0.339830   0.429047
C   0.458126  -0.363206   0.047976
C  -2.309184   1.246960  -0.330975
C   1.581047  -0.332174  -0.229710
C   1.065602  -1.220004   0.794864
C  -0.526883   0.514350   0.874310
C   0.240972  -1.041238  -1.642548
C  -1.072724   0.729026   0.220838
C  -0.769346   1.059282   0.220002
C   3.632164  -1.837379   8.229049
C -13.473431   1.981372   4.429445
C   2.025027  -1.747592  -1.182297
C  10.956881  -7.920454   2.606239
C  -0.009499  -0.058434  -0.230128
C  -1.971771   2.016268  -0.399707
C   9.200330  -4.138212  -0.240964
C  -0.045530  -0.904862   0.695071
C  -1.823011   2.247110  -2.334539
C  12.303248  -3.418375  -6.233640
C  -5.426991   2.520419  -4.258265
C -10.222433   7.284184  -4.817276
C  -1.565543   2.596213   3.915820
C  -0.088741  -0.054374  -0.480311
C  -0.297371   0.399431   0.213650
C   2.109180  -1.671629  -0.514494
C  -0.610707   1.438172  -0.003155
C  -1.492314   0.483585   0.996744
C   0.154153  -0.024921   0.910908
C  -0.005406   0.127580  -2.102890
C   0.797740  -0.780623   0.790180
C   0.744460  -0.917165   0.787245
C  -2.589837   6.654584   5.719535
C  12.731071  -0.326375   6.802392
C  -1.465183   1.734160  -2.063818
C  -8.420607  10.263238  -2.892994
C  -0.063522  -0.133282  -0.123254
C   1.408483  -2.192516   1.013565
C  -8.025955   5.502705  -2.978589
C   0.173488   1.193847  -0.318221
C   0.785875  -3.587280  -0.545279
C -11.675173   2.345045  -8.015590
C   4.900592  -5.616659  -2.255600
C   7.571968 -10.867755   1.145135
C   1.163603  -0.202309   5.121357
C   0.031714  -0.400844  -0.470986
C   0.283407  -0.347093   0.344629
C  -1.517573   1.684835  -2.042596
C   0.138972  -1.423829   0.797679
C   1.388868  -0.405176   0.773339
C  -0.131103  -0.787927  -0.160990
C  -0.455809   1.651094  -0.452211
C  -0.529705  -1.064875  -0.671574
C  -0.750481  -0.847847  -0.300981
C   7.396511  -2.546881   3.677085
C   0.307951 -10.005980 -11.478049
C   0.804674   2.645446   0.769040
C   9.350560   7.810216   6.668455
C  -0.163704   0.201914  -0.051516
C  -1.870845  -1.807087  -0.653503
C   4.491225   6.353243   6.406122
C   0.975982   0.394817  -0.693367
C  -3.479175  -0.608651  -0.703975
C  -0.244226  10.883977   8.804815
C  -5.284113  -0.864752  -4.698864
C -10.515750  -5.782880  -6.291687
C   0.861488  -4.903465   0.116985
C  -0.373312   0.356782  -0.048305
C  -0.084760  -0.418180  -0.191801
C   1.352843   2.472646   0.702819
C  -0.948682  -1.277268   0.116706
C  -0.099347  -1.234184  -1.108135
C  -0.230460  -0.029896   0.610062
C   1.013308  -0.551587  -1.517115
C   0.099531  -0.230102   1.274032
C  -0.040497  -0.510937   1.152985
C  -5.107790   7.416563   0.445489
C   8.547605   3.142265  12.462892
C  -0.049608   0.362870  -2.832372
C  -5.169290   7.417768 -10.554798
C   0.082663  -0.155105  -0.158688
C   0.362217  -1.471564   2.197333
C  -4.804010   2.751246  -8.510170
C   0.494010   1.097638  -0.266364
C   1.071887  -3.436304   1.344488
C  -5.333566  -2.620373 -12.886094
C   4.715902  -4.296660   3.154090
C   6.148543  -8.959521   8.351261
C  -1.698025   1.326770   4.339774
C   0.379500  -0.316083  -0.221102
C  -0.040459  -0.104371   0.436481
C  -0.248786   0.861578  -2.591053
C  -0.413258  -0.757166   1.458843
C   0.585457   0.503343   1.605039
C  -0.100702  -0.905024   0.306982
C   0.438453   2.073525  -0.065609
C   0.903126  -1.074080   0.199040
C   0.824859  -1.019470  -0.097886
C  -7.487012  -3.568487   4.348214
C   9.846793  -8.018570   7.744631
C  -1.286146   2.676066   0.077726
C -11.463861   6.696507   2.218421
C   0.085606   0.139830  -0.061053
C   1.780798  -1.896287  -0.762904
C  -8.396155   5.287245  -1.220452
C  -0.513837   0.469831   1.112358
C   2.730143  -0.462713  -2.192350
C  -8.311548   9.677790  -6.537777
C   7.395124   0.421022  -1.211800
C  12.711143  -4.559498  -3.528542
C  -0.200668  -5.194374   1.036448
C   0.346090   0.462192  -0.211976
C   0.307065  -0.489356  -0.028975
C  -1.732739   2.490236   0.010276
C   0.736853  -1.242685  -0.848768
C   0.983791  -1.176976   0.647737
