220
220
C 152.171005  37.160999 128.589005   0.00000000e+00   0.00000000e+00   0.00000000e+00
C 151.944000  36.393002 129.328995   0.00000000e+00   0.00000000e+00   0.00000000e+00
C 152.783005  35.701000 129.404007   0.00000000e+00   0.00000000e+00   0.00000000e+00
C 151.050003  35.848999 129.026001   0.00000000e+00   0.00000000e+00   0.00000000e+00
C 151.697006  37.012001 130.705994   0.00000000e+00   0.00000000e+00   0.00000000e+00
C 151.766006  38.229000 130.865005   0.00000000e+00   0.00000000e+00   0.00000000e+00
C 151.408005  36.166000 131.697998   0.00000000e+00   0.00000000e+00   0.00000000e+00
C 151.363007  35.174000 131.518005   0.00000000e+00   0.00000000e+00   0.00000000e+00
C 151.153000  36.627998 133.048004   0.00000000e+00   0.00000000e+00   0.00000000e+00
C 152.029999  37.154999 133.425003   0.00000000e+00   0.00000000e+00   0.00000000e+00
C 149.960007  37.577000 133.087997   0.00000000e+00   0.00000000e+00   0.00000000e+00
C 149.072998  37.061001 132.722000   0.00000000e+00   0.00000000e+00   0.00000000e+00
C 149.792007  37.907001 134.112000   0.00000000e+00   0.00000000e+00   0.00000000e+00
C 150.162994  38.442001 132.457001   0.00000000e+00   0.00000000e+00   0.00000000e+00
C 150.850998  35.462002 133.977997   0.00000000e+00   0.00000000e+00   0.00000000e+00
C 150.845001  34.308998 133.552002   0.00000000e+00   0.00000000e+00   0.00000000e+00
C 150.598007  35.764000 135.253006   0.00000000e+00   0.00000000e+00   0.00000000e+00
C 150.615005  36.727001 135.557007   0.00000000e+00   0.00000000e+00   0.00000000e+00
C 150.296997  34.743000 136.237000   0.00000000e+00   0.00000000e+00   0.00000000e+00
C 150.315994  33.763000 135.761993   0.00000000e+00   0.00000000e+00   0.00000000e+00
C 151.039001  34.775002 137.033997   0.00000000e+00   0.00000000e+00   0.00000000e+00
C 149.306000  34.923000 136.656006   0.00000000e+00   0.00000000e+00   0.00000000e+00
C  67.655998 157.373001 148.466995   0.00000000e+00   0.00000000e+00   0.00000000e+00
C  66.903999 157.205002 149.238007   0.00000000e+00   0.00000000e+00   0.00000000e+00
C  67.175003 156.326996 149.824997   0.00000000e+00   0.00000000e+00   0.00000000e+00
C  65.932999 157.042999 148.770004   0.00000000e+00   0.00000000e+00   0.00000000e+00
C  66.800003 158.406998 150.177994   0.00000000e+00   0.00000000e+00   0.00000000e+00
C  67.513000 159.395004 150.009003   0.00000000e+00   0.00000000e+00   0.00000000e+00
C  65.907997 158.317993 151.167007   0.00000000e+00   0.00000000e+00   0.00000000e+00
C  65.345001 157.485001 151.264999   0.00000000e+00   0.00000000e+00   0.00000000e+00
C  65.714996 159.389008 152.123001   0.00000000e+00   0.00000000e+00   0.00000000e+00
C  66.649002 159.578003 152.654007   0.00000000e+00   0.00000000e+00   0.00000000e+00
C  65.281998 160.675003 151.427002   0.00000000e+00   0.00000000e+00   0.00000000e+00
C  64.343002 160.505005 150.899002   0.00000000e+00   0.00000000e+00   0.00000000e+00
C  65.143997 161.462006 152.167999   0.00000000e+00   0.00000000e+00   0.00000000e+00
C  66.049004 160.979004 150.714005   0.00000000e+00   0.00000000e+00   0.00000000e+00
C  64.642998 159.029007 153.141006   0.00000000e+00   0.00000000e+00   0.00000000e+00
C  64.067001 157.944000 153.084000   0.00000000e+00   0.00000000e+00   0.00000000e+00
C  64.375000 159.942001 154.076996   0.00000000e+00   0.00000000e+00   0.00000000e+00
C  64.875000 160.820007 154.084000   0.00000000e+00   0.00000000e+00   0.00000000e+00
C  63.375999 159.718002 155.102997   0.00000000e+00   0.00000000e+00   0.00000000e+00
C  62.925999 158.735001 154.964005   0.00000000e+00   0.00000000e+00   0.00000000e+00
C  63.845001 159.768005 156.085007   0.00000000e+00   0.00000000e+00   0.00000000e+00
C  62.603001 160.483994 155.031006   0.00000000e+00   0.00000000e+00   0.00000000e+00
C 126.348999  11.448000  43.659000   0.00000000e+00   0.00000000e+00   0.00000000e+00
C 127.401001  11.445000  43.373001   0.00000000e+00   0.00000000e+00   0.00000000e+00
C 127.591003  12.261000  42.674999   0.00000000e+00   0.00000000e+00   0.00000000e+00
C 127.646004  10.495000  42.897999   0.00000000e+00   0.00000000e+00   0.00000000e+00
C 128.302994  11.628000  44.595001   0.00000000e+00   0.00000000e+00   0.00000000e+00
C 127.817001  11.754000  45.716999   0.00000000e+00   0.00000000e+00   0.00000000e+00
C 129.619003  11.640000  44.368999   0.00000000e+00   0.00000000e+00   0.00000000e+00
C 129.970993  11.533000  43.429001   0.00000000e+00   0.00000000e+00   0.00000000e+00
C 130.578003  11.806000  45.443001   0.00000000e+00   0.00000000e+00   0.00000000e+00
C 130.406998  12.761000  45.939999   0.00000000e+00   0.00000000e+00   0.00000000e+00
C 130.447006  10.690000  46.473000   0.00000000e+00   0.00000000e+00   0.00000000e+00
C 130.625000   9.728000  45.992001   0.00000000e+00   0.00000000e+00   0.00000000e+00
C 131.179001  10.839000  47.266998   0.00000000e+00   0.00000000e+00   0.00000000e+00
C 129.444000  10.703000  46.898998   0.00000000e+00   0.00000000e+00   0.00000000e+00
C 132.003998  11.784000  44.911999   0.00000000e+00   0.00000000e+00   0.00000000e+00
C 132.220993  11.639000  43.710999   0.00000000e+00   0.00000000e+00   0.00000000e+00
C 132.979996  11.928000  45.812000   0.00000000e+00   0.00000000e+00   0.00000000e+00
C 132.751999  12.044000  46.789001   0.00000000e+00   0.00000000e+00   0.00000000e+00
C 134.378006  11.924000  45.431999   0.00000000e+00   0.00000000e+00   0.00000000e+00
C 134.462997  11.790000  44.354000   0.00000000e+00   0.00000000e+00   0.00000000e+00
C 134.835999  12.871000  45.716999   0.00000000e+00   0.00000000e+00   0.00000000e+00
C 134.891006  11.106000  45.939999   0.00000000e+00   0.00000000e+00   0.00000000e+00
C 113.754997 143.248001  12.843000   0.00000000e+00   0.00000000e+00   0.00000000e+00
C 113.955002 144.052994  13.550000   0.00000000e+00   0.00000000e+00   0.00000000e+00
C 114.865997 143.828995  14.107000   0.00000000e+00   0.00000000e+00   0.00000000e+00
C 113.119003 144.143997  14.244000   0.00000000e+00   0.00000000e+00   0.00000000e+00
C 114.139999 145.389008  12.828000   0.00000000e+00   0.00000000e+00   0.00000000e+00
C 114.056000 145.451996  11.603000   0.00000000e+00   0.00000000e+00   0.00000000e+00
C 114.390999 146.453003  13.594000   0.00000000e+00   0.00000000e+00   0.00000000e+00
C 114.450996 146.350006  14.597000   0.00000000e+00   0.00000000e+00   0.00000000e+00
C 114.584999 147.772995  13.030000   0.00000000e+00   0.00000000e+00   0.00000000e+00
C 115.435997 147.757004  12.348000   0.00000000e+00   0.00000000e+00   0.00000000e+00
C 113.350998 148.227005  12.258000   0.00000000e+00   0.00000000e+00   0.00000000e+00
C 112.492996 148.257004  12.929000   0.00000000e+00   0.00000000e+00   0.00000000e+00
C 113.525002 149.220993  11.846000   0.00000000e+00   0.00000000e+00   0.00000000e+00
C 113.153000 147.528000  11.445000   0.00000000e+00   0.00000000e+00   0.00000000e+00
C 114.856003 148.800003  14.120000   0.00000000e+00   0.00000000e+00   0.00000000e+00
C 114.887001 148.462997  15.301000   0.00000000e+00   0.00000000e+00   0.00000000e+00
C 115.051003 150.059006  13.721000   0.00000000e+00   0.00000000e+00   0.00000000e+00
C 115.015999 150.287994  12.737000   0.00000000e+00   0.00000000e+00   0.00000000e+00
C 115.318001 151.128998  14.661000   0.00000000e+00   0.00000000e+00   0.00000000e+00
C 115.324997 150.729004  15.675000   0.00000000e+00   0.00000000e+00   0.00000000e+00
C 116.288002 151.574005  14.440000   0.00000000e+00   0.00000000e+00   0.00000000e+00
C 114.541000 151.889008  14.577000   0.00000000e+00   0.00000000e+00   0.00000000e+00
C  35.723999 147.649002 123.677002   0.00000000e+00   0.00000000e+00   0.00000000e+00
C  36.153999 148.115997 122.791000   0.00000000e+00   0.00000000e+00   0.00000000e+00
C  35.736000 149.115005 122.667999   0.00000000e+00   0.00000000e+00   0.00000000e+00
C  35.918999 147.514008 121.913002   0.00000000e+00   0.00000000e+00   0.00000000e+00
C  37.674000 148.233002 122.912003   0.00000000e+00   0.00000000e+00   0.00000000e+00
C  38.254002 147.826004 123.917000   0.00000000e+00   0.00000000e+00   0.00000000e+00
C  38.313999 148.792007 121.882004   0.00000000e+00   0.00000000e+00   0.00000000e+00
C  37.793999 149.112000 121.078003   0.00000000e+00   0.00000000e+00   0.00000000e+00
C  39.754002 148.960007 121.875000   0.00000000e+00   0.00000000e+00   0.00000000e+00
C  40.050999 149.587006 122.716003   0.00000000e+00   0.00000000e+00   0.00000000e+00
C  40.464001 147.615997 121.994003   0.00000000e+00   0.00000000e+00   0.00000000e+00
C  40.182999 146.981003 121.154999   0.00000000e+00   0.00000000e+00   0.00000000e+00
C  41.542000 147.772003 121.986000   0.00000000e+00   0.00000000e+00   0.00000000e+00
C  40.174999 147.132996 122.928001   0.00000000e+00   0.00000000e+00   0.00000000e+00
C  40.222000 149.621002 120.586998   0.00000000e+00   0.00000000e+00   0.00000000e+00
C  39.412998 149.938004 119.718002   0.00000000e+00   0.00000000e+00   0.00000000e+00
C  41.535000 149.828995 120.464996   0.00000000e+00   0.00000000e+00   0.00000000e+00
C  42.161999 149.550995 121.207001   0.00000000e+00   0.00000000e+00   0.00000000e+00
C  42.105999 150.449997 119.286003   0.00000000e+00   0.00000000e+00   0.00000000e+00
C  41.311001 150.692001 118.581001   0.00000000e+00   0.00000000e+00   0.00000000e+00
C  42.626999 151.363998 119.572998   0.00000000e+00   0.00000000e+00   0.00000000e+00
C  42.810001 149.763000 118.818001   0.00000000e+00   0.00000000e+00   0.00000000e+00
C 108.553001   3.253000 147.022003   0.00000000e+00   0.00000000e+00   0.00000000e+00
C 108.869003   2.565000 146.238998   0.00000000e+00   0.00000000e+00   0.00000000e+00
C 108.582001   1.548000 146.509003   0.00000000e+00   0.00000000e+00   0.00000000e+00
C 109.952003   2.617000 146.123993   0.00000000e+00   0.00000000e+00   0.00000000e+00
C 108.218002   2.916000 144.899994   0.00000000e+00   0.00000000e+00   0.00000000e+00
C 107.447998   3.872000 144.813004   0.00000000e+00   0.00000000e+00   0.00000000e+00
C 108.530998   2.140000 143.860001   0.00000000e+00   0.00000000e+00   0.00000000e+00
C 109.168999   1.367000 143.981995   0.00000000e+00   0.00000000e+00   0.00000000e+00
C 107.980003   2.370000 142.539993   0.00000000e+00   0.00000000e+00   0.00000000e+00
C 106.892998   2.296000 142.580002   0.00000000e+00   0.00000000e+00   0.00000000e+00
C 108.355003   3.754000 142.022003   0.00000000e+00   0.00000000e+00   0.00000000e+00
C 109.440002   3.841000 141.966995   0.00000000e+00   0.00000000e+00   0.00000000e+00
C 107.928001   3.899000 141.029007   0.00000000e+00   0.00000000e+00   0.00000000e+00
C 107.963997   4.514000 142.699005   0.00000000e+00   0.00000000e+00   0.00000000e+00
C 108.500000   1.344000 141.542999   0.00000000e+00   0.00000000e+00   0.00000000e+00
C 109.283997   0.468000 141.901001   0.00000000e+00   0.00000000e+00   0.00000000e+00
C 108.060997   1.454000 140.287003   0.00000000e+00   0.00000000e+00   0.00000000e+00
C 107.416000   2.192000 140.041000   0.00000000e+00   0.00000000e+00   0.00000000e+00
C 108.481003   0.539000 139.244995   0.00000000e+00   0.00000000e+00   0.00000000e+00
C 109.170998  -0.194000 139.662003   0.00000000e+00   0.00000000e+00   0.00000000e+00
C 107.610001   0.027000 138.837006   0.00000000e+00   0.00000000e+00   0.00000000e+00
C 108.980003   1.096000 138.451996   0.00000000e+00   0.00000000e+00   0.00000000e+00
C  52.084999 169.718994 166.509995   0.00000000e+00   0.00000000e+00   0.00000000e+00
C  52.332001 169.488007 167.546005   0.00000000e+00   0.00000000e+00   0.00000000e+00
C  53.377998 169.731003 167.733002   0.00000000e+00   0.00000000e+00   0.00000000e+00
C  52.167000 168.425995 167.731995   0.00000000e+00   0.00000000e+00   0.00000000e+00
C  51.463001 170.294006 168.513000   0.00000000e+00   0.00000000e+00   0.00000000e+00
C  50.618000 171.078995 168.085999   0.00000000e+00   0.00000000e+00   0.00000000e+00
C  51.674999 170.095993 169.815994   0.00000000e+00   0.00000000e+00   0.00000000e+00
C  52.381001 169.440002 170.117996   0.00000000e+00   0.00000000e+00   0.00000000e+00
C  50.917000 170.798996 170.830994   0.00000000e+00   0.00000000e+00   0.00000000e+00
C  51.068001 171.873001 170.720001   0.00000000e+00   0.00000000e+00   0.00000000e+00
C  49.425999 170.501999 170.707001   0.00000000e+00   0.00000000e+00   0.00000000e+00
C  49.257000 169.432007 170.824997   0.00000000e+00   0.00000000e+00   0.00000000e+00
C  48.882000 171.042007 171.481003   0.00000000e+00   0.00000000e+00   0.00000000e+00
C  49.071999 170.820007 169.725998   0.00000000e+00   0.00000000e+00   0.00000000e+00
C  51.358002 170.388000 172.227997   0.00000000e+00   0.00000000e+00   0.00000000e+00
C  52.251999 169.557999 172.380997   0.00000000e+00   0.00000000e+00   0.00000000e+00
C  50.729000 170.970993 173.250000   0.00000000e+00   0.00000000e+00   0.00000000e+00
C  50.000000 171.647995 173.074005   0.00000000e+00   0.00000000e+00   0.00000000e+00
C  51.056999 170.664001 174.628006   0.00000000e+00   0.00000000e+00   0.00000000e+00
C  51.855999 169.923004 174.654999   0.00000000e+00   0.00000000e+00   0.00000000e+00
C  51.388000 171.572006 175.134003   0.00000000e+00   0.00000000e+00   0.00000000e+00
C  50.175999 170.268005 175.132996   0.00000000e+00   0.00000000e+00   0.00000000e+00
C 107.596001 123.295998   0.537000   0.00000000e+00   0.00000000e+00   0.00000000e+00
C 108.209000 122.772003   1.271000   0.00000000e+00   0.00000000e+00   0.00000000e+00
C 109.061996 123.393997   1.542000   0.00000000e+00   0.00000000e+00   0.00000000e+00
C 108.565002 121.834000   0.844000   0.00000000e+00   0.00000000e+00   0.00000000e+00
C 107.407997 122.460999   2.536000   0.00000000e+00   0.00000000e+00   0.00000000e+00
C 106.227997 122.795998   2.627000   0.00000000e+00   0.00000000e+00   0.00000000e+00
C 108.056000 121.818001   3.511000   0.00000000e+00   0.00000000e+00   0.00000000e+00
C 109.026001 121.564003   3.390000   0.00000000e+00   0.00000000e+00   0.00000000e+00
C 107.408997 121.466003   4.758000   0.00000000e+00   0.00000000e+00   0.00000000e+00
C 107.056999 122.371002   5.255000   0.00000000e+00   0.00000000e+00   0.00000000e+00
C 106.214996 120.549004   4.517000   0.00000000e+00   0.00000000e+00   0.00000000e+00
C 106.551003 119.634003   4.029000   0.00000000e+00   0.00000000e+00   0.00000000e+00
C 105.748001 120.300003   5.470000   0.00000000e+00   0.00000000e+00   0.00000000e+00
C 105.489998 121.054001   3.880000   0.00000000e+00   0.00000000e+00   0.00000000e+00
C 108.370003 120.742996   5.690000   0.00000000e+00   0.00000000e+00   0.00000000e+00
C 109.529999 120.528000   5.345000   0.00000000e+00   0.00000000e+00   0.00000000e+00
C 107.885002 120.366997   6.876000   0.00000000e+00   0.00000000e+00   0.00000000e+00
C 106.924004 120.566002   7.114000   0.00000000e+00   0.00000000e+00   0.00000000e+00
C 108.700996 119.670998   7.851000   0.00000000e+00   0.00000000e+00   0.00000000e+00
C 109.705002 119.529999   7.452000   0.00000000e+00   0.00000000e+00   0.00000000e+00
C 108.753998 120.259003   8.767000   0.00000000e+00   0.00000000e+00   0.00000000e+00
C 108.257004 118.698997   8.069000   0.00000000e+00   0.00000000e+00   0.00000000e+00
C 127.857002  88.757004   4.096000   0.00000000e+00   0.00000000e+00   0.00000000e+00
C 127.628998  87.691002   4.103000   0.00000000e+00   0.00000000e+00   0.00000000e+00
C 128.421005  87.146004   3.590000   0.00000000e+00   0.00000000e+00   0.00000000e+00
C 126.681000  87.517998   3.593000   0.00000000e+00   0.00000000e+00   0.00000000e+00
C 127.518997  87.161003   5.534000   0.00000000e+00   0.00000000e+00   0.00000000e+00
C 127.681000  87.914001   6.493000   0.00000000e+00   0.00000000e+00   0.00000000e+00
C 127.240997  85.862000   5.670000   0.00000000e+00   0.00000000e+00   0.00000000e+00
C 127.115997  85.283997   4.852000   0.00000000e+00   0.00000000e+00   0.00000000e+00
C 127.111000  85.239998   6.972000   0.00000000e+00   0.00000000e+00   0.00000000e+00
C 128.046005  85.348999   7.524000   0.00000000e+00   0.00000000e+00   0.00000000e+00
C 125.990997  85.886002   7.780000   0.00000000e+00   0.00000000e+00   0.00000000e+00
C 125.046997  85.778000   7.246000   0.00000000e+00   0.00000000e+00   0.00000000e+00
C 125.916000  85.400002   8.752000   0.00000000e+00   0.00000000e+00   0.00000000e+00
C 126.208000  86.945000   7.921000   0.00000000e+00   0.00000000e+00   0.00000000e+00
C 126.793999  83.757004   6.842000   0.00000000e+00   0.00000000e+00   0.00000000e+00
C 126.681000  83.237999   5.734000   0.00000000e+00   0.00000000e+00   0.00000000e+00
C 126.650002  83.073997   7.980000   0.00000000e+00   0.00000000e+00   0.00000000e+00
C 126.752998  83.544998   8.868000   0.00000000e+00   0.00000000e+00   0.00000000e+00
C 126.347000  81.656998   7.989000   0.00000000e+00   0.00000000e+00   0.00000000e+00
C 126.267998  81.294998   6.965000   0.00000000e+00   0.00000000e+00   0.00000000e+00
C 127.142998  81.117996   8.504000   0.00000000e+00   0.00000000e+00   0.00000000e+00
C 125.403000  81.489998   8.507000   0.00000000e+00   0.00000000e+00   0.00000000e+00
C  35.841999  69.613998 110.688004   0.00000000e+00   0.00000000e+00   0.00000000e+00
C  35.041000  70.157997 110.188004   0.00000000e+00   0.00000000e+00   0.00000000e+00
C  34.596001  69.525002 109.418999   0.00000000e+00   0.00000000e+00   0.00000000e+00
C  35.445000  71.058998 109.725998   0.00000000e+00   0.00000000e+00   0.00000000e+00
C  33.948002  70.564003 111.179001   0.00000000e+00   0.00000000e+00   0.00000000e+00
C  34.046001  70.271004 112.370003   0.00000000e+00   0.00000000e+00   0.00000000e+00
C  32.909000  71.237999 110.680000   0.00000000e+00   0.00000000e+00   0.00000000e+00
C  32.874001  71.455002 109.695000   0.00000000e+00   0.00000000e+00   0.00000000e+00
C  31.811001  71.679001 111.515999   0.00000000e+00   0.00000000e+00   0.00000000e+00
C  31.337999  70.814003 111.983002   0.00000000e+00   0.00000000e+00   0.00000000e+00
C  32.298000  72.619003 112.612999   0.00000000e+00   0.00000000e+00   0.00000000e+00
C  32.764999  73.494003 112.162003   0.00000000e+00   0.00000000e+00   0.00000000e+00
C  31.452999  72.933998 113.224998   0.00000000e+00   0.00000000e+00   0.00000000e+00
C  33.025002  72.101997 113.238998   0.00000000e+00   0.00000000e+00   0.00000000e+00
C  30.764000  72.420998 110.698997   0.00000000e+00   0.00000000e+00   0.00000000e+00
C  30.914000  72.580002 109.488998   0.00000000e+00   0.00000000e+00   0.00000000e+00
C  29.698999  72.877998 111.362999   0.00000000e+00   0.00000000e+00   0.00000000e+00
C  29.620001  72.722000 112.358002   0.00000000e+00   0.00000000e+00   0.00000000e+00
C  28.634001  73.599998 110.697998   0.00000000e+00   0.00000000e+00   0.00000000e+00
C  28.861000  73.686996 109.636002   0.00000000e+00   0.00000000e+00   0.00000000e+00
C  27.694000  73.061996 110.824997   0.00000000e+00   0.00000000e+00   0.00000000e+00
C  28.542999  74.596001 111.132004   0.00000000e+00   0.00000000e+00   0.00000000e+00
