550
550
C   0.320824  -3.284280   2.639962
C  -3.086766  -8.446612   4.442049
C   0.040716   1.180219   1.230201
C   1.444810  -0.489139  -0.918174
C   0.106147   5.123121 -11.268158
C   3.895839  10.739443 -17.560287
C  10.588029  19.238813   5.384837
C  -0.550567  -1.128445   0.526199
C   1.182091 -13.209951   4.309057
C   0.010523   0.058227  -0.860904
C  -1.011154   6.956126   5.147751
C   0.777445   0.635796   1.020611
C   3.171629   3.203230   3.288860
C  -4.669987  -5.861918  12.156231
C   1.836823  -5.516028  -4.725908
C  -2.448894   5.238592  -3.142228
C  -4.401111  -4.674098  -5.002996
C   0.273545   2.916067  -1.724709
C  -1.175385  -7.332999   4.908358
C  -4.636083  -5.171797   0.665609
C  -1.167408  -0.640950  -0.550570
C  -1.114017  -0.442608  -0.721850
C  -0.060251  -3.694438   0.918761
C  -4.660025  -7.761476   6.234224
C   1.716231   0.185033   0.447641
C  -0.287411  -0.454782  -2.128766
C  -2.953680  11.247693  -7.235977
C  -3.022750  16.241968 -12.464202
C  20.163591   5.227520  -5.986903
C  -0.356555  -0.451226   0.788701
C  -6.530990 -12.299669   1.570351
C  -0.368673   0.707393  -0.269534
C   8.093332   2.306241   3.435794
C   1.345642  -0.194865   0.377779
C   5.665677  -0.713598  -1.004624
C   1.525714  -9.218819  11.416702
C  -4.353533  -2.287499  -3.654412
C   0.464113   5.791819   0.268089
C  -9.063425   1.398139   1.570246
C   0.950895   3.106538  -1.243234
C  -1.916259  -7.491125   2.654780
C  -4.810223  -2.297033   4.912760
C  -1.263042   0.422968   0.792338
C  -0.924520   0.252709   1.336985
C  -0.490897  -0.749554  -3.520881
C   3.704206  -5.184736  -8.853913
C  -0.453850   1.856637  -0.489905
C  -1.459666  -0.753427   0.640543
C   0.553389  -1.088934  12.174129
C  -3.181267  -1.492140  21.333525
C -12.677917  17.689812   5.999117
C   0.627852  -0.576284  -1.118782
C   0.025147  -9.380760 -10.691995
C   0.068536  -0.599939   0.715924
C  -0.145889   9.585100  -0.489488
C  -1.100528   0.598378  -0.486466
C  -3.987479   3.809121  -1.271883
C   3.851829   1.896906 -13.923580
C  -1.740241  -6.416671   2.560318
C   2.466273   2.198647   5.222872
C   6.370165  -6.893823   0.169806
C  -0.374180   1.519189   3.401424
C   0.649493  -3.542347  -6.835270
C   4.599795  -3.191788  -3.921292
C   1.147494  -0.572204  -0.033126
C   1.481155  -0.217064  -0.388022
C  -1.751871   1.446747  -3.040559
C   2.592690   6.296589  -9.503462
C  -1.219849   0.802460   1.116485
C  -0.981818  -1.757588  -0.623345
C   3.450353 -10.522007   7.998994
C   5.779740 -16.736200  11.333691
C -13.650761   0.040734  15.548436
C  -0.039230   0.815313  -0.891150
C  -0.281070   1.913933 -13.734205
C   0.489444  -0.645334   0.329346
C  -3.089783   5.891169   6.151926
C  -0.811584   0.854074   0.756740
C  -4.843512   1.130168   2.502821
C  -2.263060  12.331529  -6.087256
C   0.180555  -4.403481  -4.372446
C   3.863608  -2.754778   4.979468
C   8.466146  -1.876893  -3.726069
C  -0.054126  -1.630293   2.931144
C  -1.515229   3.674744  -6.742507
C   4.217165   3.519644  -4.546301
C   1.223701   0.194285  -0.753502
C   1.217970   0.923292  -0.359833
C  -1.772669  -0.579822   2.985624
C  -9.193836   2.617659   6.172137
C   1.517036   0.400904   0.875140
C   0.042941  -2.140471  -0.444703
C   3.497003  -3.005111 -12.036994
C   7.459886  -6.732802 -19.274588
C  21.524733  -2.394002   1.827213
C  -1.044868   0.317363   0.835315
C -10.715542  -4.253804   8.376226
C   0.003307   0.208312  -0.942639
C   7.455730   4.347869   2.468446
C   0.882366   0.098957   1.062687
C   4.590271  -0.794259   2.803481
C  -5.037119   6.591221  11.793483
C  -3.813511  -4.786757  -1.756826
C   2.359448   1.686889  -5.451516
C  -8.101884   1.695198  -4.620665
C   2.489966  -0.088665  -2.216979
C  -5.109362   0.309836   6.382689
C  -6.305167   2.954599   1.285865
C  -1.103256   0.641337  -0.309197
C  -1.145304   0.645281  -0.380839
C  -2.888335   2.637826  -0.469651
C  -2.838008   9.233222  -3.542722
C  -0.051113  -0.043194   1.627080
C  -1.581085  -1.532406  -0.581624
C   5.166811 -10.865339  -3.997700
C   7.834663 -18.909805  -3.975977
C   0.023869 -10.168111  20.421949
C   0.059498   1.302914  -0.811069
C  -8.744288   8.116964  -6.850739
C   0.495573  -0.551838  -0.622972
C   3.626754   1.589790   8.763840
C  -0.318053   0.086031   1.199643
C  -1.515770  -1.021243   5.367646
C  -2.614683  13.941511   2.668905
C  -3.388591  -2.796653  -4.602558
C   5.251114  -3.923803  -0.375246
C   2.243029   2.195019  -8.914511
C   1.480542  -2.789493   1.223952
C  -5.284906   6.840784  -2.071862
C   1.107076   5.595930  -4.260349
C   1.000992   0.599643  -0.789972
C   1.039847   0.614294  -0.955358
C  -0.812567   0.601991  -4.144677
C  -4.411773   3.772835  -7.996191
C   0.414614  -2.046669  -0.262211
C   1.353066   0.703059   0.116050
C   2.238407   2.558833  12.187407
C   6.532890   4.434028  19.801456
C  13.335495 -16.636562   5.183442
C  -0.943619   0.042000  -0.904383
C  -1.068060   8.591769 -11.785830
C  -0.718895  -0.186010   0.743028
C  -0.564867  -9.349955   0.552436
C   0.409491  -1.041638  -0.577619
C   3.304948  -4.311831  -1.129396
C  -6.121734  -4.121264 -11.947365
C   1.669838   5.257706   0.601195
C  -0.737029  -2.192756   5.424795
C  -5.249759   7.147769  -0.053154
C   0.769002  -0.929664   3.684994
C  -2.531857   2.013135  -7.703125
C  -5.765639   2.418354  -3.219322
C  -1.179775   0.450285   0.043914
C  -1.121752   0.698747   0.356629
C   0.303471   3.048483   2.056910
C   5.961268   4.227427   9.499761
C  -2.140098   0.097197   0.151418
C   0.449429   1.045412  -1.813058
C   1.806340  -7.763301 -10.084547
C   1.980485 -10.833219 -17.859844
C -19.645359   0.273151 -10.075894
C  -0.035956   0.542600   0.670314
C   7.430880   9.109963   6.965369
C   0.234404  -0.095381  -0.560561
C  -7.658820  -1.132153   2.421343
C  -1.348638   0.608136   0.186043
C  -5.337147   1.319924  -1.529632
C  -2.045938   4.705698  13.190525
C   3.752827   2.465115  -2.687390
C  -0.299464  -5.281033  -3.301538
C   8.394239  -2.905083   1.990159
C  -1.233933  -2.075102  -2.443449
C   3.162697   5.064315   5.862381
C   4.038830   0.092284   6.338313
C   0.494200  -0.889222   1.037063
C   0.545315  -0.833563   1.079062
C  -3.717237   0.243040   0.540848
C  -9.886228  -1.342712   5.153272
C   0.143671  -0.758392  -1.653199
C   0.320337   1.981133  -0.176505
C  13.358480   2.636698   1.974426
C  19.374598   8.349267   1.201209
C   6.836131   0.238082 -21.207859
C  -1.223643  -0.326835   0.503371
C -12.118155   3.478010   6.236501
C   0.719415   0.518258   0.723616
C   0.446826  -5.721025  -7.227489
C  -0.413088  -0.238946  -0.770017
C  -0.463290   0.057191  -5.430722
C -12.463286  -7.622722   1.080366
C   0.720223   5.011060   3.801661
C   6.366073  -1.619240   0.111012
C  -0.045240  -0.449144   9.571036
C   3.209068   0.116256  -1.221401
C  -7.608920   0.579792   1.932543
C  -3.375649  -2.925106   5.588419
C   0.068674  -0.916960   1.003256
C  -0.043088  -1.094985   1.127432
C  -2.640993  -2.947461   0.276112
C -10.317875  -3.027744  -0.631883
C   0.585940  -0.461849   1.889415
C   1.042126  -1.064782  -1.343267
C   9.394086   6.602935  -6.408155
C  14.924657   9.947635 -10.082015
C  17.406342  -3.457958  12.805112
C  -1.278075  -0.070476   0.068976
C  -9.618126  -8.323103  -4.717335
C   0.179330   1.003786  -0.265210
C   1.937140   0.601247   9.262073
C   0.344168  -0.159526   0.918235
C   3.504122  -2.211150   3.717341
C -11.113777  -4.176973   7.453837
C  -0.427118  -1.073628  -6.104300
C   2.802115   4.685614  -0.673388
C  -6.206491   4.048793  -6.046873
C   3.149531   1.527896  -0.031554
C  -6.556828  -5.081830  -0.281901
C  -6.886923   1.178531  -0.877599
C  -0.743659   0.974125   0.154474
C  -0.917408   0.923742  -0.020534
C  -0.332870  -1.821268  -3.320790
C   1.665353  -8.458663  -6.680419
C   1.079660   1.569452  -0.711672
C  -1.997197   0.458502  -0.108540
C  -4.870356   2.065281  11.471725
C  -9.061662   7.784648  17.739613
C   3.041529  22.818413   0.256769
C   0.526796  -1.215585  -0.252268
C  -3.993815  -8.464627 -11.032099
C   0.273415  -0.076156   0.850071
C   7.042769   5.506603   0.249578
C  -0.028930   1.044906  -1.066446
C   0.980507   4.920757  -2.320796
C   8.522947  -5.077069 -10.310256
C  -4.807643  -3.226895   0.801459
C   1.924020   1.975739   5.254401
C  -1.543229  -8.813714   2.980994
C  -0.215487   2.349154   2.487760
C   0.520177  -5.123092  -5.805885
C   1.764901  -6.189501  -1.830361
C   0.562347  -0.970980   0.481823
C   0.391272  -1.041926   0.456652
C   1.164274   3.567521   2.105072
C   6.364560   5.862388   4.972102
C  -1.015233  -0.409516   0.937401
C  -0.785746   1.017300  -1.466997
C  -1.721081  -7.192438  -9.582841
C  -5.756769 -11.545221 -16.601557
C -21.428181  -5.644683   3.460358
C   1.290066   0.234377   0.638900
C   7.279561  11.978970   1.157326
C   0.222700  -0.715103  -0.352022
C  -4.804045  -3.595688   6.366336
C  -0.963416  -0.184581   1.005934
C  -5.244477   0.443811   2.233571
C   4.213318   5.458536  12.338460
C   1.920506   1.129888  -6.234167
C  -0.397666  -5.809965  -1.795834
C   9.494953   0.692725  -2.617201
C  -2.019610  -2.524319  -1.550362
C   3.738781   6.298820   4.368771
C   6.571021   1.192773   1.768727
C   1.193632  -0.542390   0.002054
C   1.259713  -0.506260  -0.459186
C   0.542728  -2.035949  -3.460167
C  -0.031228  -9.503891  -5.348853
C   1.630056   0.936650  -0.095619
C  -1.193098   1.346209  -0.721270
C  -6.696060   7.390224   8.482241
C  -9.955410  13.694211  11.507547
C  12.202060  18.635151   0.209041
C  -0.029753  -1.082342  -0.380814
C  -3.507817  -8.651443 -10.306439
C  -0.680567   0.153238   0.704957
C   8.355065   2.268455   1.889718
C   1.256085   0.472111  -0.796077
C   3.922822   3.591893  -1.566236
C   8.139809 -10.142194  -5.687676
C  -6.581652  -0.638957  -1.467637
C  -0.863691   2.229228   5.588549
C  -5.818265  -5.986904   1.855639
C  -0.134665   2.681508   2.218148
C   0.764565  -6.451074  -5.490016
C  -1.011666  -6.994220  -0.245710
C  -0.549218  -1.048749   0.505785
C  -0.341197  -0.838164   0.747333
C   2.895452  -2.376152   0.126944
C   4.727535  -8.324454   4.696841
C   1.371385   1.505161  -0.169651
C  -0.480138  -0.655173  -1.691626
C -11.386415   4.154449  -2.106880
C -19.191746   8.014868  -5.585203
C   4.502073  18.733517 -11.384760
C   0.699048  -1.151434   0.970085
C   5.360768 -12.205827  -0.082670
C  -0.842246  -0.187336   0.232701
C   4.356361   8.109095   0.736549
C   1.034380   0.756010  -0.200634
C   3.310258   3.515155  -2.932487
C  12.172136  -4.012852   6.734842
C  -4.667530  -5.437507  -1.548306
C  -3.372784   3.991182   0.507036
C  -3.942827  -6.252968   5.067336
C  -2.441506   2.516960  -0.782292
C   5.541691  -5.643063   1.818397
C   0.877400  -4.492751   5.081872
C  -0.469770  -0.507415   0.938755
C  -0.614418  -0.472551   1.031485
C   1.103789  -1.994578  -3.393557
C  -0.916314  -6.097776  -8.466994
C   1.612853  -0.636779   1.047892
C   0.430912   1.670186  -0.600850
C  -5.780463   9.233772   7.901390
C  -8.572964  14.128156  12.079735
C  14.886498   5.590271  14.377920
C   0.253140  -0.830004  -1.127869
C   0.440259  -3.393421 -14.454270
C  -0.797258   0.544495   0.231204
C   5.634737  -3.278944   5.630681
C   0.789426  -0.845002   0.507197
C   4.966502   0.588867   2.092144
C   4.045788 -12.161388  -6.223971
C  -4.291485   3.609961  -2.368983
C  -1.884399   0.836290   4.759420
C  -8.391069  -1.271324  -4.031017
C  -0.285782   1.731842   3.036213
C   2.004526  -4.782233  -6.752727
C  -3.729431  -4.688213  -3.537020
C  -1.288835  -0.503176  -0.500769
C  -1.447683  -0.348394   0.027811
C  -1.190439  -1.471962  -3.506728
C  -4.329011  -8.761475  -5.296364
C   1.746075   0.663265  -0.804193
C  -1.207612   1.578695  -0.130296
C  -1.199082   7.673475  10.393826
C  -2.230439  11.619615  17.287746
C  14.774439  15.117338  -2.178442
C  -0.056429  -0.717165  -0.658003
C  -8.735645  -5.670493  -9.057401
C  -0.129294   0.021216   0.794401
C   8.339051   0.003208  -1.421052
C   1.028539   0.311736  -0.807403
C   3.515930   3.500141  -2.634917
C   2.997598  -9.427682 -10.084851
C  -6.242792   0.353353   1.079561
C   1.594577   1.361687   6.176285
C  -5.793846  -6.409570   4.702979
C   1.437550   2.534418   1.862248
C  -2.649904  -4.323532  -5.585665
C  -2.325014  -6.674433  -0.839946
C  -0.477489  -1.204521   0.426062
C   0.021303  -1.307954   0.256623
C  -1.120395   2.422302  -3.348191
C  -5.347905   8.058588  -4.760005
C  -0.580956  -1.569604  -0.823474
C   1.966666   0.219255  -0.305221
C   8.024178  -4.305270  10.672583
C  12.799459  -6.642755  14.638370
C   3.184721 -19.974390  -4.402006
C  -0.739639   0.814905  -0.632962
C  -0.074663  11.469234  -7.639190
C  -0.051203  -0.019970   0.929786
C  -4.315853  -7.870271  -1.859160
C  -0.387068  -1.221208  -0.811665
C   0.404274  -4.520558  -3.045136
C -10.987059   3.615255  -8.549577
C   5.486772   3.723923   0.600005
C   1.248176  -1.999107   6.045915
C  -1.581508   8.392546   5.022792
C   1.342362  -2.560248   1.912432
C  -2.848810   5.567403  -6.320198
C  -4.526566   5.701145   0.690698
C  -1.049808   0.729891   0.819411
C  -0.623605   0.967966   0.836027
C  -0.339636   3.985118  -0.038361
C   0.237378  10.474046   3.807689
C  -1.802068  -0.274412  -1.043112
C   1.256311  -0.340025  -0.929751
C   6.271814 -12.328869   1.123623
C  10.146359 -18.173742  -0.610048
C  -9.746371 -10.973505 -15.023526
C  -0.177101   1.053800   0.521727
C   4.680474  13.236419   0.552359
C   0.096981  -0.733354   0.520653
C  -8.561329  -1.891142  -2.047861
C  -0.908317   0.176136  -0.951378
C  -3.106282  -1.403951  -4.475611
C  -8.381003  10.885254   1.745519
C   5.945364   0.892302   1.007979
C  -0.441280  -5.671045   2.045403
C   4.547579   1.419994   7.414376
C   0.170788  -3.117850  -0.820596
C   0.206437   8.838149   1.263820
C  -0.294768   4.683474   5.128126
C  -0.342642  -0.021882   1.295472
C   0.007249  -0.030992   1.381384
C   2.123284  -0.516690   2.627398
C  10.596598  -2.254989   2.880946
C  -1.322988  -1.310829   0.819564
C  -0.524891   1.762140   0.593900
C  -6.834575   5.461234  -9.236935
C -10.476917   9.767285 -14.149465
C -20.154270  -2.693571   6.639079
C   1.332787  -0.445873   0.261296
C  11.454232   2.022077   6.883495
C   0.304278   0.506059  -0.856543
C  -5.464135  -6.780970   1.887329
C  -0.771084  -0.311865   1.066596
C  -4.274543  -0.961333   3.647672
C   8.001575  -9.656342   7.328089
C   2.517736   5.901742  -2.487265
C  -3.448915  -0.614356  -4.421411
C   8.019691   1.165420  -6.075278
C  -3.295329   0.665197  -1.196799
C   6.159695  -1.054325   4.298122
C   6.446949  -2.401240  -1.291878
C   1.058577  -0.307236  -0.739977
C   0.912941  -0.728703  -0.845780
C  -1.530057  -1.922150   3.483125
C  -2.210575  -7.889998   5.711353
C  -1.689307   0.782077  -0.582539
C   0.792387   1.130628   1.240261
C   9.191137   5.924922  -4.597319
C  14.457592  11.853910  -9.776902
C -10.575538  17.485630  -8.804455
C  -0.368001  -1.082462   0.601831
C  -0.922065  -6.920933  11.237630
C   0.854380   0.373034   0.175952
C  -7.019278   0.880548  -4.937553
C  -1.402681   0.504953  -0.233663
C  -4.000703   3.841576  -1.100658
C -10.080750  -8.920234   3.804569
C   5.946327   0.265811   4.359444
C   1.788979   1.648763  -3.930778
C   6.599225  -6.575521   1.145430
C   0.878640   2.472393  -2.356524
C  -2.651459  -5.166937   5.910317
C   0.603981  -6.687717   1.875495
C   0.533970  -1.115903  -0.469814
C   0.569567  -1.174362  -0.225716
C  -3.753036  -1.204087   0.947293
C  -8.571527  -6.647964  -0.299940
C  -0.477662   1.507037  -0.554662
C   0.496226   0.361684   2.034699
C  13.421474   1.509680   1.393338
C  20.428881   1.745211   2.932709
C   2.310784  20.410847  -1.128513
C  -0.711065  -0.575535  -0.130865
C  -8.939898  -7.330616   5.712538
C   0.677928  -0.305381  -0.054993
C  -2.203938   6.581418  -5.244611
C  -0.602203   1.176088  -0.190108
C  -1.048889   5.657573   0.187976
C -13.299782  -1.910935  -4.770260
C   1.199583  -4.251198   5.018284
C   5.046021   1.319734  -2.766482
C   2.835429  -8.547598  -0.906103
C   2.521286   1.950722  -0.110597
C  -6.886802  -4.169533   1.167963
C  -3.354559  -5.819329  -1.811973
C   0.034575  -1.319355  -0.618028
C  -0.065093  -1.157000  -0.866897
C  -1.810890  -3.116782  -0.420213
C  -5.345868  -9.223264  -3.646146
C  -0.792520   1.034547   0.574316
C   1.222605  -0.393112   0.878643
C  11.175925   8.198047  -1.378162
C  17.219379  11.467228   1.613302
C  -5.070580  14.551542  16.264395
C  -0.696274  -1.028343  -1.140362
C  -1.574094 -13.312315  -1.965443
C   0.560776   0.101716  -0.460582
C  -6.721018   5.925858   2.031438
C  -0.926600   0.361271   0.472108
C  -2.719359   2.081418   4.357018
C -12.226363  -6.376815  -3.209838
C   5.125023  -3.501006  -0.133196
C   3.402644   4.990259  -1.555843
C   3.827422  -3.724918  -6.526209
C   1.647679   2.991749   0.268740
C  -4.226352  -7.083123  -1.502383
C  -1.815693  -3.734107  -5.659821
C   0.001462  -0.243248  -1.295417
C  -0.081564  -0.023268  -1.284173
C   1.191072   0.714736   3.572015
C   2.996355  -4.056711   8.799281
C  -1.697159   1.521217   0.376250
C   1.759310   1.157035  -0.734622
C   1.278753  -2.379392 -11.766500
C   3.257098  -2.710166 -21.021414
C -11.030987  17.616724  -7.910602
C   0.035101  -1.421082   1.019156
C   8.349423  -0.456003   9.942382
C   0.131081  -0.877912  -0.680921
C  -7.380309   3.605693   1.212303
C  -1.284713   0.693132   0.229990
C  -2.733994   4.845577  -0.577393
C  -3.605046  -0.303026  13.571043
C   5.845079  -2.657475  -1.806437
C  -2.293586  -1.510481  -4.710367
C   4.313702  -8.667932   1.580574
C  -1.219303   0.471591  -3.214385
C   3.230217   0.378977   7.360979
C   1.017551  -5.259944   4.410933
C  -0.281808  -1.433426  -0.026423
C  -0.384197  -1.377375   0.323003
C   0.767459  -2.053724   2.600952
C  -1.061103  -3.023762  10.129008
C   2.380140   0.234357  -0.441931
C  -0.866264  -1.290359  -0.895963
C  -7.087128   5.428325  -8.785427
C -11.305616   7.284310 -16.270714
C  14.017205   0.813687 -17.530989
C   0.052210  -0.264047   1.696543
C  -2.073702 -10.012131  10.253769
C  -0.704037   0.622754  -0.100557
C   7.690888   3.822873  -2.251561
C   1.370996  -0.406264  -0.351598
C   4.740594  -1.618040  -2.654791
C   8.037536  -2.010537  11.819338
C  -6.611234  -1.927636   0.061606
C  -0.457954   3.537669  -3.546899
C  -7.447233   2.233118   5.723554
C  -0.099938   1.673495  -3.218221
C   1.170491  -4.988142   6.938371
C  -2.054142   1.429279   6.475152
C  -0.515407   1.044087   0.682276
C  -0.907061   0.932563   0.689266
C  -2.523898  -2.546167   0.670154
C  -4.285592  -8.991462   5.029977
C   0.087839  -0.177404  -1.876522
C  -1.017851   1.488336   0.489408
C   7.211690  10.945679   2.504622
C   7.935159  18.739365   3.643358
C  -0.227975   9.000240 -19.728884
C   0.087627  -1.196651   0.625471
C  -8.953074  -6.897268   7.079304
C   0.185071   0.599549   0.593427
C   2.359276  -2.599145  -8.553154
C  -0.276879  -0.283778  -1.112868
C  -1.383540   1.035684  -5.358876
C  -3.482539 -13.416594  -2.206023
C  -1.593552   2.268035   5.442313
C   4.890166   2.694304  -1.197392
C   2.684357  -1.410829   8.238729
C   1.595912   2.716229  -1.326462
C  -4.863983  -6.818066   2.782470
C   0.771683  -5.520686   4.144391
C   0.962734  -0.842569   0.522727
C   0.862568  -0.728106   0.811958
